version 2
run General-0-20190109-22:15:24-3771
attr configname General
attr datetime 20190109-22:15:24
attr experiment General
attr inifile omnetpp.ini
attr iterationvars $0=29
attr iterationvarsf 29-
attr measurement $0=29
attr network Network
attr processid 3771
attr repetition 0
attr replication #0
attr resultdir results
attr runnumber 0
attr seedset 0
param **.constraintAreaMinX 0m
param **.constraintAreaMinY 0m
param **.constraintAreaMinZ 0m
param **.constraintAreaMaxX 10000m
param **.constraintAreaMaxY 10000m
param **.constraintAreaMaxZ 0m
param **.myue[*.mobility.initFromDisplayString false
param **.myue[*.token 29

scalar Network.myue[0].myue #sinrGainMean 3.125
scalar Network.myue[1].myue #sinrGainMean 3.2
scalar Network.myue[2].myue #sinrGainMean 3.8
scalar Network.myue[3].myue #sinrGainMean 0
scalar Network.myue[4].myue #sinrGainMean 0
scalar Network.myue[5].myue #sinrGainMean 0
scalar Network.myue[6].myue #sinrGainMean 1.8888888888889
scalar Network.myue[7].myue #sinrGainMean 6.375
scalar Network.myue[8].myue #sinrGainMean 0
scalar Network.myue[9].myue #sinrGainMean 0
scalar Network.myue[10].myue #sinrGainMean 0.25
scalar Network.myue[11].myue #sinrGainMean 2.75
scalar Network.myue[12].myue #sinrGainMean 5.8
scalar Network.myue[13].myue #sinrGainMean 3.1666666666667
scalar Network.myue[14].myue #sinrGainMean 3.2
scalar Network.myue[15].myue #sinrGainMean 2
scalar Network.myue[16].myue #sinrGainMean 4.75
scalar Network.myue[17].myue #sinrGainMean 2.375
scalar Network.myue[18].myue #sinrGainMean 0
scalar Network.myue[19].myue #sinrGainMean 6.2857142857143
scalar Network.myue[20].myue #sinrGainMean 0.75
scalar Network.myue[21].myue #sinrGainMean 2.2727272727273
scalar Network.myue[22].myue #sinrGainMean 2
scalar Network.myue[23].myue #sinrGainMean 2.5
scalar Network.myue[24].myue #sinrGainMean 5.8181818181818
scalar Network.myue[25].myue #sinrGainMean 2.8
scalar Network.myue[26].myue #sinrGainMean 3.75
scalar Network.myue[27].myue #sinrGainMean 0
scalar Network.myue[28].myue #sinrGainMean 3.5
scalar Network.myue[29].myue #sinrGainMean 0
scalar Network.myue[30].myue #sinrGainMean 1.5
scalar Network.myue[31].myue #sinrGainMean 0
scalar Network.myue[32].myue #sinrGainMean 3.2
scalar Network.myue[33].myue #sinrGainMean 2.4285714285714
scalar Network.myue[34].myue #sinrGainMean 1.25
scalar Network.myue[35].myue #sinrGainMean 0
scalar Network.myue[36].myue #sinrGainMean 0.75
scalar Network.myue[37].myue #sinrGainMean 0.75
scalar Network.myue[38].myue #sinrGainMean 3.4
scalar Network.myue[39].myue #sinrGainMean 0
scalar Network.myue[40].myue #sinrGainMean 1.8
scalar Network.myue[41].myue #sinrGainMean 0
scalar Network.myue[42].myue #sinrGainMean 0.5
scalar Network.myue[43].myue #sinrGainMean 3.5
scalar Network.myue[44].myue #sinrGainMean 5
scalar Network.myue[45].myue #sinrGainMean 3.3333333333333
scalar Network.myue[46].myue #sinrGainMean 1.8
scalar Network.myue[47].myue #sinrGainMean 2.5
scalar Network.myue[48].myue #sinrGainMean 2.5
scalar Network.myue[49].myue #sinrGainMean 3.6
scalar Network.myue[50].myue #sinrGainMean 2.6666666666667
scalar Network.myue[51].myue #sinrGainMean 3.5555555555556
scalar Network.myue[52].myue #sinrGainMean 1.75
scalar Network.myue[53].myue #sinrGainMean 0
scalar Network.myue[54].myue #sinrGainMean 6.3333333333333
scalar Network.myue[55].myue #sinrGainMean 2.4
scalar Network.myue[56].myue #sinrGainMean 2.8
scalar Network.myue[57].myue #sinrGainMean 3.6
scalar Network.myue[58].myue #sinrGainMean 2.3333333333333
scalar Network.myue[59].myue #sinrGainMean 3.6
scalar Network.myue[60].myue #sinrGainMean 2.6666666666667
scalar Network.myue[61].myue #sinrGainMean 6.4
scalar Network.myue[62].myue #sinrGainMean 4.4285714285714
scalar Network.myue[63].myue #sinrGainMean 2.5
scalar Network.myue[64].myue #sinrGainMean 1
scalar Network.myue[65].myue #sinrGainMean 0.5
scalar Network.myue[66].myue #sinrGainMean 0.5
scalar Network.myue[67].myue #sinrGainMean 0.57142857142857
scalar Network.myue[68].myue #sinrGainMean 4.75
scalar Network.myue[69].myue #sinrGainMean 1.8571428571429
scalar Network.myue[70].myue #sinrGainMean 4.125
scalar Network.myue[71].myue #sinrGainMean 2
scalar Network.myue[72].myue #sinrGainMean 0.375
scalar Network.myue[73].myue #sinrGainMean 1.6
scalar Network.myue[74].myue #sinrGainMean 5.2222222222222
scalar Network.myue[75].myue #sinrGainMean 3.8
scalar Network.myue[76].myue #sinrGainMean 1.1666666666667
scalar Network.myue[77].myue #sinrGainMean 2.7142857142857
scalar Network.myue[78].myue #sinrGainMean 2
scalar Network.myue[79].myue #sinrGainMean 4.1666666666667
scalar Network.myue[80].myue #sinrGainMean 0
scalar Network.myue[81].myue #sinrGainMean 4.125
scalar Network.myue[82].myue #sinrGainMean 5
scalar Network.myue[83].myue #sinrGainMean 0
scalar Network.myue[84].myue #sinrGainMean 2.5714285714286
scalar Network.myue[85].myue #sinrGainMean 2.1428571428571
scalar Network.myue[86].myue #sinrGainMean 2
scalar Network.myue[87].myue #sinrGainMean 5.5555555555556
scalar Network.myue[88].myue #sinrGainMean 5
scalar Network.myue[89].myue #sinrGainMean 5.5
scalar Network.myue[90].myue #sinrGainMean 4.1428571428571
scalar Network.myue[91].myue #sinrGainMean 0
scalar Network.myue[92].myue #sinrGainMean 0
scalar Network.myue[93].myue #sinrGainMean 0
scalar Network.myue[94].myue #sinrGainMean 2.1428571428571
scalar Network.myue[95].myue #sinrGainMean 6
scalar Network.myue[96].myue #sinrGainMean 0
scalar Network.myue[97].myue #sinrGainMean 0
scalar Network.myue[98].myue #sinrGainMean 4
scalar Network.myue[99].myue #sinrGainMean 1.6666666666667
scalar Network.myue[100].myue #sinrGainMean 2
scalar Network.myue[101].myue #sinrGainMean 2
scalar Network.myue[102].myue #sinrGainMean 2.8
scalar Network.myue[103].myue #sinrGainMean 3
scalar Network.myue[104].myue #sinrGainMean 5.8333333333333
scalar Network.myue[105].myue #sinrGainMean 4.6
scalar Network.myue[106].myue #sinrGainMean 0
scalar Network.myue[107].myue #sinrGainMean 6.8571428571429
scalar Network.myue[108].myue #sinrGainMean 1.125
scalar Network.myue[109].myue #sinrGainMean 2.4
scalar Network.myue[110].myue #sinrGainMean 1.5
scalar Network.myue[111].myue #sinrGainMean 1.3333333333333
scalar Network.myue[112].myue #sinrGainMean 0.66666666666667
scalar Network.myue[113].myue #sinrGainMean 0.33333333333333
scalar Network.myue[114].myue #sinrGainMean 2.25
scalar Network.myue[115].myue #sinrGainMean 0.66666666666667
scalar Network.myue[116].myue #sinrGainMean 5.6666666666667
scalar Network.myue[117].myue #sinrGainMean 1.75
scalar Network.myue[118].myue #sinrGainMean 9.4
scalar Network.myue[119].myue #sinrGainMean 4
scalar Network.myue[120].myue #sinrGainMean 2.1428571428571
scalar Network.myue[121].myue #sinrGainMean 0
scalar Network.myue[122].myue #sinrGainMean 0
scalar Network.myue[123].myue #sinrGainMean 0
scalar Network.myue[124].myue #sinrGainMean 3.125
scalar Network.myue[125].myue #sinrGainMean 3.3333333333333
scalar Network.myue[126].myue #sinrGainMean 4
scalar Network.myue[127].myue #sinrGainMean 3.2857142857143
scalar Network.myue[128].myue #sinrGainMean 1.6
scalar Network.myue[129].myue #sinrGainMean 0
scalar Network.myue[130].myue #sinrGainMean 0
scalar Network.myue[131].myue #sinrGainMean 3
scalar Network.myue[132].myue #sinrGainMean 2.1666666666667
scalar Network.myue[133].myue #sinrGainMean 3.125
scalar Network.myue[134].myue #sinrGainMean 2.4444444444444
scalar Network.myue[135].myue #sinrGainMean 3.2
scalar Network.myue[136].myue #sinrGainMean 2.75
scalar Network.myue[137].myue #sinrGainMean 5
scalar Network.myue[138].myue #sinrGainMean 2.6
scalar Network.myue[139].myue #sinrGainMean 2.1666666666667
scalar Network.myue[140].myue #sinrGainMean 5
scalar Network.myue[141].myue #sinrGainMean 5.2857142857143
scalar Network.myue[142].myue #sinrGainMean 5.25
scalar Network.myue[143].myue #sinrGainMean 4.375
scalar Network.myue[144].myue #sinrGainMean 5.75
scalar Network.myue[145].myue #sinrGainMean 0.83333333333333
scalar Network.myue[146].myue #sinrGainMean 1.8
scalar Network.myue[147].myue #sinrGainMean 7.8
scalar Network.myue[148].myue #sinrGainMean 0
scalar Network.myue[149].myue #sinrGainMean 3
scalar Network.myue[150].myue #sinrGainMean 2.3333333333333
scalar Network.myue[151].myue #sinrGainMean 3
scalar Network.myue[152].myue #sinrGainMean 3.2857142857143
scalar Network.myue[153].myue #sinrGainMean 1.7142857142857
scalar Network.myue[154].myue #sinrGainMean 0.3
scalar Network.myue[155].myue #sinrGainMean 6
scalar Network.myue[156].myue #sinrGainMean 2.4
scalar Network.myue[157].myue #sinrGainMean 2.4285714285714
scalar Network.myue[158].myue #sinrGainMean 1.25
scalar Network.myue[159].myue #sinrGainMean 0
scalar Network.myue[160].myue #sinrGainMean 2.6666666666667
scalar Network.myue[161].myue #sinrGainMean 5
scalar Network.myue[162].myue #sinrGainMean 1.3333333333333
scalar Network.myue[163].myue #sinrGainMean 2.4
scalar Network.myue[164].myue #sinrGainMean 1.5714285714286
scalar Network.myue[165].myue #sinrGainMean 2.5
scalar Network.myue[166].myue #sinrGainMean 2.75
scalar Network.myue[167].myue #sinrGainMean 2.4
scalar Network.myue[168].myue #sinrGainMean 2.2222222222222
scalar Network.myue[169].myue #sinrGainMean 1.25
scalar Network.myue[170].myue #sinrGainMean 1.6363636363636
scalar Network.myue[171].myue #sinrGainMean 6.5
scalar Network.myue[172].myue #sinrGainMean 4.4
scalar Network.myue[173].myue #sinrGainMean 3
scalar Network.myue[174].myue #sinrGainMean 3.25
scalar Network.myue[175].myue #sinrGainMean 2.5
scalar Network.myue[176].myue #sinrGainMean 2.2
scalar Network.myue[177].myue #sinrGainMean 3
scalar Network.myue[178].myue #sinrGainMean 2.3333333333333
scalar Network.myue[179].myue #sinrGainMean 3.4
scalar Network.myue[180].myue #sinrGainMean 2.25
scalar Network.myue[181].myue #sinrGainMean 0.25
scalar Network.myue[182].myue #sinrGainMean 6.25
scalar Network.myue[183].myue #sinrGainMean 0.4
scalar Network.myue[184].myue #sinrGainMean 4.5
scalar Network.myue[185].myue #sinrGainMean 2.75
scalar Network.myue[186].myue #sinrGainMean 3
scalar Network.myue[187].myue #sinrGainMean 2.25
scalar Network.myue[188].myue #sinrGainMean 0
scalar Network.myue[189].myue #sinrGainMean 1.5
scalar Network.myue[190].myue #sinrGainMean 2.2
scalar Network.myue[191].myue #sinrGainMean 4.3333333333333
scalar Network.myue[192].myue #sinrGainMean 1.6666666666667
scalar Network.myue[193].myue #sinrGainMean 4.4285714285714
scalar Network.myue[194].myue #sinrGainMean 1.625
scalar Network.myue[195].myue #sinrGainMean 2.25
scalar Network.myue[196].myue #sinrGainMean 2
scalar Network.myue[197].myue #sinrGainMean 0.83333333333333
scalar Network.myue[198].myue #sinrGainMean 1.2222222222222
scalar Network.myue[199].myue #sinrGainMean 0
scalar Network.myue[200].myue #sinrGainMean 2.375
scalar Network.myue[201].myue #sinrGainMean 0.2
scalar Network.myue[202].myue #sinrGainMean 1.6
scalar Network.myue[203].myue #sinrGainMean 4.375
scalar Network.myue[204].myue #sinrGainMean 1.125
scalar Network.myue[205].myue #sinrGainMean 0
scalar Network.myue[206].myue #sinrGainMean 2
scalar Network.myue[207].myue #sinrGainMean 4.3333333333333
scalar Network.myue[208].myue #sinrGainMean 1.5
scalar Network.myue[209].myue #sinrGainMean 4.2
scalar Network.myue[210].myue #sinrGainMean 2.3333333333333
scalar Network.myue[211].myue #sinrGainMean 1.25
scalar Network.myue[212].myue #sinrGainMean 5.25
scalar Network.myue[213].myue #sinrGainMean 1.8
scalar Network.myue[214].myue #sinrGainMean 3.8
scalar Network.myue[215].myue #sinrGainMean 6.6666666666667
scalar Network.myue[216].myue #sinrGainMean 3
scalar Network.myue[217].myue #sinrGainMean 0
scalar Network.myue[218].myue #sinrGainMean 0
scalar Network.myue[219].myue #sinrGainMean 3.5
scalar Network.myue[220].myue #sinrGainMean 4.8571428571429
scalar Network.myue[221].myue #sinrGainMean 2.6666666666667
scalar Network.myue[222].myue #sinrGainMean 0.66666666666667
scalar Network.myue[223].myue #sinrGainMean 2.3333333333333
scalar Network.myue[224].myue #sinrGainMean 2
scalar Network.myue[225].myue #sinrGainMean 3.1666666666667
scalar Network.myue[226].myue #sinrGainMean 6.2
scalar Network.myue[227].myue #sinrGainMean 7
scalar Network.myue[228].myue #sinrGainMean 1.8333333333333
scalar Network.myue[229].myue #sinrGainMean 0.5
scalar Network.myue[230].myue #sinrGainMean 0
scalar Network.myue[231].myue #sinrGainMean 0.66666666666667
scalar Network.myue[232].myue #sinrGainMean 0
scalar Network.myue[233].myue #sinrGainMean 2.3333333333333
scalar Network.myue[234].myue #sinrGainMean 5.75
scalar Network.myue[235].myue #sinrGainMean 0
scalar Network.myue[236].myue #sinrGainMean 2.8571428571429
scalar Network.myue[237].myue #sinrGainMean 2
scalar Network.myue[238].myue #sinrGainMean 2.8571428571429
scalar Network.myue[239].myue #sinrGainMean 6.8571428571429
scalar Network.myue[240].myue #sinrGainMean 2.7142857142857
scalar Network.myue[241].myue #sinrGainMean 2.1428571428571
scalar Network.myue[242].myue #sinrGainMean 0.75
scalar Network.myue[243].myue #sinrGainMean 4.1666666666667
scalar Network.myue[244].myue #sinrGainMean 1.875
scalar Network.myue[245].myue #sinrGainMean 0
scalar Network.myue[246].myue #sinrGainMean 2.7142857142857
scalar Network.myue[247].myue #sinrGainMean 0
scalar Network.myue[248].myue #sinrGainMean 10.333333333333
scalar Network.myue[249].myue #sinrGainMean 3.8
scalar Network.myue[250].myue #sinrGainMean 4.5
scalar Network.myue[251].myue #sinrGainMean 3
scalar Network.myue[252].myue #sinrGainMean 2.1428571428571
scalar Network.myue[253].myue #sinrGainMean 2
scalar Network.myue[254].myue #sinrGainMean 2
scalar Network.myue[255].myue #sinrGainMean 0
scalar Network.myue[256].myue #sinrGainMean 0.6
scalar Network.myue[257].myue #sinrGainMean 5.25
scalar Network.myue[258].myue #sinrGainMean 0
scalar Network.myue[259].myue #sinrGainMean 2
scalar Network.myue[260].myue #sinrGainMean 3.3333333333333
scalar Network.myue[261].myue #sinrGainMean 8.8333333333333
scalar Network.myue[262].myue #sinrGainMean 0
scalar Network.myue[263].myue #sinrGainMean 2.2
scalar Network.myue[264].myue #sinrGainMean 0
scalar Network.myue[265].myue #sinrGainMean 1.6666666666667
scalar Network.myue[266].myue #sinrGainMean 1.875
scalar Network.myue[267].myue #sinrGainMean 3
scalar Network.myue[268].myue #sinrGainMean 3.5555555555556
scalar Network.myue[269].myue #sinrGainMean 3.75
scalar Network.myue[270].myue #sinrGainMean 1.4
scalar Network.myue[271].myue #sinrGainMean 5.25
scalar Network.myue[272].myue #sinrGainMean 6.8333333333333
scalar Network.myue[273].myue #sinrGainMean 1.4
scalar Network.myue[274].myue #sinrGainMean 0
scalar Network.myue[275].myue #sinrGainMean 0
scalar Network.myue[276].myue #sinrGainMean 4.75
scalar Network.myue[277].myue #sinrGainMean 0
scalar Network.myue[278].myue #sinrGainMean 3
scalar Network.myue[279].myue #sinrGainMean 2.6
scalar Network.myue[280].myue #sinrGainMean 4.4
scalar Network.myue[281].myue #sinrGainMean 2
scalar Network.myue[282].myue #sinrGainMean 4.8571428571429
scalar Network.myue[283].myue #sinrGainMean 2.2
scalar Network.myue[284].myue #sinrGainMean 3.2857142857143
scalar Network.myue[285].myue #sinrGainMean 3.8333333333333
scalar Network.myue[286].myue #sinrGainMean 1.5
scalar Network.myue[287].myue #sinrGainMean 1.5714285714286
scalar Network.myue[288].myue #sinrGainMean 2.1428571428571
scalar Network.myue[289].myue #sinrGainMean 2.5
scalar Network.myue[290].myue #sinrGainMean 1
scalar Network.myue[291].myue #sinrGainMean 0
scalar Network.myue[292].myue #sinrGainMean 0
scalar Network.myue[293].myue #sinrGainMean 2
scalar Network.myue[294].myue #sinrGainMean 1.25
scalar Network.myue[295].myue #sinrGainMean 0.83333333333333
scalar Network.myue[296].myue #sinrGainMean 6
scalar Network.myue[297].myue #sinrGainMean 0
scalar Network.myue[298].myue #sinrGainMean 3.2
scalar Network.myue[299].myue #sinrGainMean 2.6666666666667
scalar Network.myue[300].myue #sinrGainMean 2.8571428571429
scalar Network.myue[301].myue #sinrGainMean 3.3333333333333
scalar Network.myue[302].myue #sinrGainMean 1.75
scalar Network.myue[303].myue #sinrGainMean 1
scalar Network.myue[304].myue #sinrGainMean 0
scalar Network.myue[305].myue #sinrGainMean 5.3333333333333
scalar Network.myue[306].myue #sinrGainMean 3.5
scalar Network.myue[307].myue #sinrGainMean 0.66666666666667
scalar Network.myue[308].myue #sinrGainMean 1.625
scalar Network.myue[309].myue #sinrGainMean 7.1666666666667
scalar Network.myue[310].myue #sinrGainMean 1.8333333333333
scalar Network.myue[311].myue #sinrGainMean 2.125
scalar Network.myue[312].myue #sinrGainMean 0.66666666666667
scalar Network.myue[313].myue #sinrGainMean 0
scalar Network.myue[314].myue #sinrGainMean 2.6666666666667
scalar Network.myue[315].myue #sinrGainMean 4.1428571428571
scalar Network.myue[316].myue #sinrGainMean 1.8333333333333
scalar Network.myue[317].myue #sinrGainMean 2.75
scalar Network.myue[318].myue #sinrGainMean 2.7777777777778
scalar Network.myue[319].myue #sinrGainMean 3.6666666666667
scalar Network.myue[320].myue #sinrGainMean 3.6666666666667
scalar Network.myue[321].myue #sinrGainMean 2.25
scalar Network.myue[322].myue #sinrGainMean 2.25
scalar Network.myue[323].myue #sinrGainMean 2.5
scalar Network.myue[324].myue #sinrGainMean 0
scalar Network.myue[325].myue #sinrGainMean 8
scalar Network.myue[326].myue #sinrGainMean 3.4
scalar Network.myue[327].myue #sinrGainMean 2
scalar Network.myue[328].myue #sinrGainMean 4.8571428571429
scalar Network.myue[329].myue #sinrGainMean 3.75
scalar Network.myue[330].myue #sinrGainMean 0
scalar Network.myue[331].myue #sinrGainMean 1.875
scalar Network.myue[332].myue #sinrGainMean 1
scalar Network.myue[333].myue #sinrGainMean 2.2857142857143
scalar Network.myue[334].myue #sinrGainMean 0.5
scalar Network.myue[335].myue #sinrGainMean 2.2222222222222
scalar Network.myue[336].myue #sinrGainMean 2.5
scalar Network.myue[337].myue #sinrGainMean 3
scalar Network.myue[338].myue #sinrGainMean 4.5
scalar Network.myue[339].myue #sinrGainMean 4.375
scalar Network.myue[340].myue #sinrGainMean 5.8333333333333
scalar Network.myue[341].myue #sinrGainMean 2.75
scalar Network.myue[342].myue #sinrGainMean 5.2
scalar Network.myue[343].myue #sinrGainMean 4.4285714285714
scalar Network.myue[344].myue #sinrGainMean 2.2
scalar Network.myue[345].myue #sinrGainMean 5.5714285714286
scalar Network.myue[346].myue #sinrGainMean 0
scalar Network.myue[347].myue #sinrGainMean 7.3333333333333
scalar Network.myue[348].myue #sinrGainMean 0.85714285714286
scalar Network.myue[349].myue #sinrGainMean 0
scalar Network.myue[350].myue #sinrGainMean 1.4285714285714
scalar Network.myue[351].myue #sinrGainMean 3.6666666666667
scalar Network.myue[352].myue #sinrGainMean 1.5
scalar Network.myue[353].myue #sinrGainMean 1.6
scalar Network.myue[354].myue #sinrGainMean 0
scalar Network.myue[355].myue #sinrGainMean 2.3333333333333
scalar Network.myue[356].myue #sinrGainMean 0.8
scalar Network.myue[357].myue #sinrGainMean 1.75
scalar Network.myue[358].myue #sinrGainMean 3.125
scalar Network.myue[359].myue #sinrGainMean 0
scalar Network.myue[360].myue #sinrGainMean 0
scalar Network.myue[361].myue #sinrGainMean 2
scalar Network.myue[362].myue #sinrGainMean 0
scalar Network.myue[363].myue #sinrGainMean 3
scalar Network.myue[364].myue #sinrGainMean 2
scalar Network.myue[365].myue #sinrGainMean 0.85714285714286
scalar Network.myue[366].myue #sinrGainMean 1.75
scalar Network.myue[367].myue #sinrGainMean 2.8571428571429
scalar Network.myue[368].myue #sinrGainMean 0
scalar Network.myue[369].myue #sinrGainMean 1.4
scalar Network.myue[370].myue #sinrGainMean 6.8571428571429
scalar Network.myue[371].myue #sinrGainMean 3.5
scalar Network.myue[372].myue #sinrGainMean 1.6666666666667
scalar Network.myue[373].myue #sinrGainMean 1.6666666666667
scalar Network.myue[374].myue #sinrGainMean 2.5
scalar Network.myue[375].myue #sinrGainMean 0.5
scalar Network.myue[376].myue #sinrGainMean 3
scalar Network.myue[377].myue #sinrGainMean 1.7142857142857
scalar Network.myue[378].myue #sinrGainMean 2.4285714285714
scalar Network.myue[379].myue #sinrGainMean 1
scalar Network.myue[380].myue #sinrGainMean 2.1428571428571
scalar Network.myue[381].myue #sinrGainMean 0
scalar Network.myue[382].myue #sinrGainMean 1.1428571428571
scalar Network.myue[383].myue #sinrGainMean 2.4285714285714
scalar Network.myue[384].myue #sinrGainMean 0
scalar Network.myue[385].myue #sinrGainMean 0
scalar Network.myue[386].myue #sinrGainMean 0
scalar Network.myue[387].myue #sinrGainMean 3.5
scalar Network.myue[388].myue #sinrGainMean 5.6666666666667
scalar Network.myue[389].myue #sinrGainMean 1.6
scalar Network.myue[390].myue #sinrGainMean 2.2857142857143
scalar Network.myue[391].myue #sinrGainMean 0
scalar Network.myue[392].myue #sinrGainMean 0
scalar Network.myue[393].myue #sinrGainMean 2.75
scalar Network.myue[394].myue #sinrGainMean 6.625
scalar Network.myue[395].myue #sinrGainMean 3.2
scalar Network.myue[396].myue #sinrGainMean 0
scalar Network.myue[397].myue #sinrGainMean 1
scalar Network.myue[398].myue #sinrGainMean 0
scalar Network.myue[399].myue #sinrGainMean 1.8571428571429
scalar Network.myue[400].myue #sinrGainMean 3.6666666666667
scalar Network.myue[401].myue #sinrGainMean 4.4
scalar Network.myue[402].myue #sinrGainMean 0.66666666666667
scalar Network.myue[403].myue #sinrGainMean 3.1666666666667
scalar Network.myue[404].myue #sinrGainMean 2
scalar Network.myue[405].myue #sinrGainMean 5.8333333333333
scalar Network.myue[406].myue #sinrGainMean 1.75
scalar Network.myue[407].myue #sinrGainMean 2.4
scalar Network.myue[408].myue #sinrGainMean 2.8
scalar Network.myue[409].myue #sinrGainMean 0
scalar Network.myue[410].myue #sinrGainMean 1.875
scalar Network.myue[411].myue #sinrGainMean 1.3333333333333
scalar Network.myue[412].myue #sinrGainMean 3.125
scalar Network.myue[413].myue #sinrGainMean 2.8
scalar Network.myue[414].myue #sinrGainMean 0.66666666666667
scalar Network.myue[415].myue #sinrGainMean 2.25
scalar Network.myue[416].myue #sinrGainMean 4
scalar Network.myue[417].myue #sinrGainMean 3.5
scalar Network.myue[418].myue #sinrGainMean 2.8333333333333
scalar Network.myue[419].myue #sinrGainMean 0
scalar Network.myue[420].myue #sinrGainMean 0
scalar Network.myue[421].myue #sinrGainMean 3.3333333333333
scalar Network.myue[422].myue #sinrGainMean 2.4
scalar Network.myue[423].myue #sinrGainMean 0.83333333333333
scalar Network.myue[424].myue #sinrGainMean 2.7777777777778
scalar Network.myue[425].myue #sinrGainMean 4.6666666666667
scalar Network.myue[426].myue #sinrGainMean 5.5
scalar Network.myue[427].myue #sinrGainMean 3.2857142857143
scalar Network.myue[428].myue #sinrGainMean 2.5555555555556
scalar Network.myue[429].myue #sinrGainMean 2.6666666666667
scalar Network.myue[430].myue #sinrGainMean 3.2
scalar Network.myue[431].myue #sinrGainMean 1.6666666666667
scalar Network.myue[432].myue #sinrGainMean 3.6666666666667
scalar Network.myue[433].myue #sinrGainMean 2
scalar Network.myue[434].myue #sinrGainMean 3.75
scalar Network.myue[435].myue #sinrGainMean 3.8333333333333
scalar Network.myue[436].myue #sinrGainMean 3
scalar Network.myue[437].myue #sinrGainMean 2.4
scalar Network.myue[438].myue #sinrGainMean 1
scalar Network.myue[439].myue #sinrGainMean 0.8
scalar Network.myue[440].myue #sinrGainMean 0.2
scalar Network.myue[441].myue #sinrGainMean 4.25
scalar Network.myue[442].myue #sinrGainMean 0
scalar Network.myue[443].myue #sinrGainMean 3.25
scalar Network.myue[444].myue #sinrGainMean 2
scalar Network.myue[445].myue #sinrGainMean 5.8571428571429
scalar Network.myue[446].myue #sinrGainMean 1.5
scalar Network.myue[447].myue #sinrGainMean 2.5714285714286
scalar Network.myue[448].myue #sinrGainMean 1.6
scalar Network.myue[449].myue #sinrGainMean 6.75
scalar Network.myue[450].myue #sinrGainMean 2.2857142857143
scalar Network.myue[451].myue #sinrGainMean 1.5
scalar Network.myue[452].myue #sinrGainMean 1.5
scalar Network.myue[453].myue #sinrGainMean 3.1666666666667
scalar Network.myue[454].myue #sinrGainMean 1.7142857142857
scalar Network.myue[455].myue #sinrGainMean 0
scalar Network.myue[456].myue #sinrGainMean 3.4285714285714
scalar Network.myue[457].myue #sinrGainMean 5.6666666666667
scalar Network.myue[458].myue #sinrGainMean 2
scalar Network.myue[459].myue #sinrGainMean 7.6
scalar Network.myue[460].myue #sinrGainMean 2.25
scalar Network.myue[461].myue #sinrGainMean 1.5
scalar Network.myue[462].myue #sinrGainMean 0
scalar Network.myue[463].myue #sinrGainMean 6.7142857142857
scalar Network.myue[464].myue #sinrGainMean 0
scalar Network.myue[465].myue #sinrGainMean 3.2857142857143
scalar Network.myue[466].myue #sinrGainMean 5.25
scalar Network.myue[467].myue #sinrGainMean 2.6666666666667
scalar Network.myue[468].myue #sinrGainMean 2.3333333333333
scalar Network.myue[469].myue #sinrGainMean 2.4
scalar Network.myue[470].myue #sinrGainMean 4.5714285714286
scalar Network.myue[471].myue #sinrGainMean 3.5
scalar Network.myue[472].myue #sinrGainMean 1.5833333333333
scalar Network.myue[473].myue #sinrGainMean 2.5
scalar Network.myue[474].myue #sinrGainMean 2.2
scalar Network.myue[475].myue #sinrGainMean 2
scalar Network.myue[476].myue #sinrGainMean 2
scalar Network.myue[477].myue #sinrGainMean 2.6666666666667
scalar Network.myue[478].myue #sinrGainMean 3
scalar Network.myue[479].myue #sinrGainMean 5.1428571428571
scalar Network.myue[480].myue #sinrGainMean 2.5
scalar Network.myue[481].myue #sinrGainMean 3.6666666666667
scalar Network.myue[482].myue #sinrGainMean 1.4285714285714
scalar Network.myue[483].myue #sinrGainMean 2.625
scalar Network.myue[484].myue #sinrGainMean 2.8
scalar Network.myue[485].myue #sinrGainMean 4.5714285714286
scalar Network.myue[486].myue #sinrGainMean 0
scalar Network.myue[487].myue #sinrGainMean 2.6666666666667
scalar Network.myue[488].myue #sinrGainMean 1.4
scalar Network.myue[489].myue #sinrGainMean 4.2222222222222
scalar Network.myue[490].myue #sinrGainMean 0
scalar Network.myue[491].myue #sinrGainMean 4.3333333333333
scalar Network.myue[492].myue #sinrGainMean 1.75
scalar Network.myue[493].myue #sinrGainMean 2.3333333333333
scalar Network.myue[494].myue #sinrGainMean 3.7142857142857
scalar Network.myue[495].myue #sinrGainMean 1.1666666666667
scalar Network.myue[496].myue #sinrGainMean 2.5714285714286
scalar Network.myue[497].myue #sinrGainMean 1.8
scalar Network.myue[498].myue #sinrGainMean 1.5
scalar Network.myue[499].myue #sinrGainMean 3.5714285714286
scalar Network.myue[500].myue #sinrGainMean 1.5
scalar Network.myue[501].myue #sinrGainMean 2.6666666666667
scalar Network.myue[502].myue #sinrGainMean 2.2857142857143
scalar Network.myue[503].myue #sinrGainMean 0
scalar Network.myue[504].myue #sinrGainMean 1
scalar Network.myue[505].myue #sinrGainMean 4.75
scalar Network.myue[506].myue #sinrGainMean 0.75
scalar Network.myue[507].myue #sinrGainMean 1.5
scalar Network.myue[508].myue #sinrGainMean 3.6666666666667
scalar Network.myue[509].myue #sinrGainMean 4.75
scalar Network.myue[510].myue #sinrGainMean 4.2727272727273
scalar Network.myue[511].myue #sinrGainMean 3.5
scalar Network.myue[512].myue #sinrGainMean 2.1428571428571
scalar Network.myue[513].myue #sinrGainMean 0
scalar Network.myue[514].myue #sinrGainMean 0.875
scalar Network.myue[515].myue #sinrGainMean 5.2
scalar Network.myue[516].myue #sinrGainMean 0.5
scalar Network.myue[517].myue #sinrGainMean 2.5
scalar Network.myue[518].myue #sinrGainMean 4.1666666666667
scalar Network.myue[519].myue #sinrGainMean 3.8333333333333
scalar Network.myue[520].myue #sinrGainMean 3.6
scalar Network.myue[521].myue #sinrGainMean 1.75
scalar Network.myue[522].myue #sinrGainMean 4
scalar Network.myue[523].myue #sinrGainMean 2
scalar Network.myue[524].myue #sinrGainMean 2.8571428571429
scalar Network.myue[525].myue #sinrGainMean 5.25
scalar Network.myue[526].myue #sinrGainMean 1.5
scalar Network.myue[527].myue #sinrGainMean 0
scalar Network.myue[528].myue #sinrGainMean 6.4285714285714
scalar Network.myue[529].myue #sinrGainMean 0.8
scalar Network.myue[530].myue #sinrGainMean 0.33333333333333
scalar Network.myue[531].myue #sinrGainMean 0
scalar Network.myue[532].myue #sinrGainMean 0
scalar Network.myue[533].myue #sinrGainMean 4
scalar Network.myue[534].myue #sinrGainMean 2.8571428571429
scalar Network.myue[535].myue #sinrGainMean 1
scalar Network.myue[536].myue #sinrGainMean 5.75
scalar Network.myue[537].myue #sinrGainMean 0
scalar Network.myue[538].myue #sinrGainMean 5.6666666666667
scalar Network.myue[539].myue #sinrGainMean 0
scalar Network.myue[540].myue #sinrGainMean 2.625
scalar Network.myue[541].myue #sinrGainMean 1.1666666666667
scalar Network.myue[542].myue #sinrGainMean 0
scalar Network.myue[543].myue #sinrGainMean 2.5
scalar Network.myue[544].myue #sinrGainMean 5.4444444444444
scalar Network.myue[545].myue #sinrGainMean 2.2222222222222
scalar Network.myue[546].myue #sinrGainMean 1.4285714285714
scalar Network.myue[547].myue #sinrGainMean 5.8888888888889
scalar Network.myue[548].myue #sinrGainMean 5.1111111111111
scalar Network.myue[549].myue #sinrGainMean 3.6
scalar Network.myue[550].myue #sinrGainMean 4.6
scalar Network.myue[551].myue #sinrGainMean 3
scalar Network.myue[552].myue #sinrGainMean 2.875
scalar Network.myue[553].myue #sinrGainMean 0
scalar Network.myue[554].myue #sinrGainMean 3
scalar Network.myue[555].myue #sinrGainMean 1.6666666666667
scalar Network.myue[556].myue #sinrGainMean 4.3333333333333
scalar Network.myue[557].myue #sinrGainMean 1.8
scalar Network.myue[558].myue #sinrGainMean 5.3333333333333
scalar Network.myue[559].myue #sinrGainMean 0
scalar Network.myue[560].myue #sinrGainMean 1
scalar Network.myue[561].myue #sinrGainMean 4.6666666666667
scalar Network.myue[562].myue #sinrGainMean 0
scalar Network.myue[563].myue #sinrGainMean 4.25
scalar Network.myue[564].myue #sinrGainMean 6.4
scalar Network.myue[565].myue #sinrGainMean 1.7142857142857
scalar Network.myue[566].myue #sinrGainMean 7.5
scalar Network.myue[567].myue #sinrGainMean 3.3333333333333
scalar Network.myue[568].myue #sinrGainMean 2.25
scalar Network.myue[569].myue #sinrGainMean 5.2857142857143
scalar Network.myue[570].myue #sinrGainMean 2
scalar Network.myue[571].myue #sinrGainMean 2.25
scalar Network.myue[572].myue #sinrGainMean 2.3333333333333
scalar Network.myue[573].myue #sinrGainMean 0
scalar Network.myue[574].myue #sinrGainMean 0
scalar Network.myue[575].myue #sinrGainMean 1
scalar Network.myue[576].myue #sinrGainMean 3.3333333333333
scalar Network.myue[577].myue #sinrGainMean 3.2857142857143
scalar Network.myue[578].myue #sinrGainMean 2.5
scalar Network.myue[579].myue #sinrGainMean 0
scalar Network.myue[580].myue #sinrGainMean 3.6666666666667
scalar Network.myue[581].myue #sinrGainMean 0.8
scalar Network.myue[582].myue #sinrGainMean 2.1428571428571
scalar Network.myue[583].myue #sinrGainMean 0
scalar Network.myue[584].myue #sinrGainMean 3
scalar Network.myue[585].myue #sinrGainMean 3.5
scalar Network.myue[586].myue #sinrGainMean 4.5
scalar Network.myue[587].myue #sinrGainMean 1
scalar Network.myue[588].myue #sinrGainMean 5.5
scalar Network.myue[589].myue #sinrGainMean 3.25
scalar Network.myue[590].myue #sinrGainMean 0.8
scalar Network.myue[591].myue #sinrGainMean 2
scalar Network.myue[592].myue #sinrGainMean 0
scalar Network.myue[593].myue #sinrGainMean 0.83333333333333
scalar Network.myue[594].myue #sinrGainMean 6.6666666666667
scalar Network.myue[595].myue #sinrGainMean 1.5
scalar Network.myue[596].myue #sinrGainMean 1
scalar Network.myue[597].myue #sinrGainMean 1
scalar Network.myue[598].myue #sinrGainMean 6.4285714285714
scalar Network.myue[599].myue #sinrGainMean 0
scalar Network.myue[600].myue #sinrGainMean 1.5714285714286
scalar Network.myue[601].myue #sinrGainMean 2.25
scalar Network.myue[602].myue #sinrGainMean 0
scalar Network.myue[603].myue #sinrGainMean 2.2727272727273
scalar Network.myue[604].myue #sinrGainMean 7.1666666666667
scalar Network.myue[605].myue #sinrGainMean 1.7777777777778
scalar Network.myue[606].myue #sinrGainMean 5
scalar Network.myue[607].myue #sinrGainMean 2.375
scalar Network.myue[608].myue #sinrGainMean 0
scalar Network.myue[609].myue #sinrGainMean 2.4285714285714
scalar Network.myue[610].myue #sinrGainMean 3.4285714285714
scalar Network.myue[611].myue #sinrGainMean 2.75
scalar Network.myue[612].myue #sinrGainMean 1.7142857142857
scalar Network.myue[613].myue #sinrGainMean 1.8333333333333
scalar Network.myue[614].myue #sinrGainMean 0
scalar Network.myue[615].myue #sinrGainMean 4.75
scalar Network.myue[616].myue #sinrGainMean 5.5
scalar Network.myue[617].myue #sinrGainMean 2.5714285714286
scalar Network.myue[618].myue #sinrGainMean 2
scalar Network.myue[619].myue #sinrGainMean 4.3333333333333
scalar Network.myue[620].myue #sinrGainMean 2
scalar Network.myue[621].myue #sinrGainMean 0.6
scalar Network.myue[622].myue #sinrGainMean 2.5
scalar Network.myue[623].myue #sinrGainMean 0
scalar Network.myue[624].myue #sinrGainMean 4
scalar Network.myue[625].myue #sinrGainMean 2.6
scalar Network.myue[626].myue #sinrGainMean 3.3333333333333
scalar Network.myue[627].myue #sinrGainMean 1.6
scalar Network.myue[628].myue #sinrGainMean 2.125
scalar Network.myue[629].myue #sinrGainMean 0
scalar Network.myue[630].myue #sinrGainMean 5.3333333333333
scalar Network.myue[631].myue #sinrGainMean 2.7142857142857
scalar Network.myue[632].myue #sinrGainMean 6.4
scalar Network.myue[633].myue #sinrGainMean 4
scalar Network.myue[634].myue #sinrGainMean 7.5
scalar Network.myue[635].myue #sinrGainMean 4.2
scalar Network.myue[636].myue #sinrGainMean 4.4
scalar Network.myue[637].myue #sinrGainMean 0
scalar Network.myue[638].myue #sinrGainMean 4.5714285714286
scalar Network.myue[639].myue #sinrGainMean 5.8571428571429
scalar Network.myue[640].myue #sinrGainMean 2
scalar Network.myue[641].myue #sinrGainMean 7.3333333333333
scalar Network.myue[642].myue #sinrGainMean 0.5
scalar Network.myue[643].myue #sinrGainMean 2.6666666666667
scalar Network.myue[644].myue #sinrGainMean 0
scalar Network.myue[645].myue #sinrGainMean 4.8
scalar Network.myue[646].myue #sinrGainMean 5.25
scalar Network.myue[647].myue #sinrGainMean 0
scalar Network.myue[648].myue #sinrGainMean 5.1666666666667
scalar Network.myue[649].myue #sinrGainMean 0.66666666666667
scalar Network.myue[650].myue #sinrGainMean 3
scalar Network.myue[651].myue #sinrGainMean 3
scalar Network.myue[652].myue #sinrGainMean 0.66666666666667
scalar Network.myue[653].myue #sinrGainMean 4.8333333333333
scalar Network.myue[654].myue #sinrGainMean 3.3333333333333
scalar Network.myue[655].myue #sinrGainMean 3.4285714285714
scalar Network.myue[656].myue #sinrGainMean 1
scalar Network.myue[657].myue #sinrGainMean 1
scalar Network.myue[658].myue #sinrGainMean 2.6666666666667
scalar Network.myue[659].myue #sinrGainMean 6.1428571428571
scalar Network.myue[660].myue #sinrGainMean 2
scalar Network.myue[661].myue #sinrGainMean 0
scalar Network.myue[662].myue #sinrGainMean 1.5
scalar Network.myue[663].myue #sinrGainMean 4.1428571428571
scalar Network.myue[664].myue #sinrGainMean 2.5833333333333
scalar Network.myue[665].myue #sinrGainMean 1.1428571428571
scalar Network.myue[666].myue #sinrGainMean 2.5454545454545
scalar Network.myue[667].myue #sinrGainMean 3
scalar Network.myue[668].myue #sinrGainMean 1.25
scalar Network.myue[669].myue #sinrGainMean 2.5714285714286
scalar Network.myue[670].myue #sinrGainMean 0.6
scalar Network.myue[671].myue #sinrGainMean 1.8571428571429
scalar Network.myue[672].myue #sinrGainMean 0
scalar Network.myue[673].myue #sinrGainMean 2.3333333333333
scalar Network.myue[674].myue #sinrGainMean 1.5
scalar Network.myue[675].myue #sinrGainMean 1.25
scalar Network.myue[676].myue #sinrGainMean 0.5
scalar Network.myue[677].myue #sinrGainMean 0
scalar Network.myue[678].myue #sinrGainMean 0
scalar Network.myue[679].myue #sinrGainMean 3.25
scalar Network.myue[680].myue #sinrGainMean 5.6666666666667
scalar Network.myue[681].myue #sinrGainMean 0
scalar Network.myue[682].myue #sinrGainMean 2.1666666666667
scalar Network.myue[683].myue #sinrGainMean 3.125
scalar Network.myue[684].myue #sinrGainMean 3
scalar Network.myue[685].myue #sinrGainMean 0
scalar Network.myue[686].myue #sinrGainMean 2.3333333333333
scalar Network.myue[687].myue #sinrGainMean 0.6
scalar Network.myue[688].myue #sinrGainMean 4.5
scalar Network.myue[689].myue #sinrGainMean 2.3333333333333
scalar Network.myue[690].myue #sinrGainMean 3.25
scalar Network.myue[691].myue #sinrGainMean 4.5
scalar Network.myue[692].myue #sinrGainMean 3.3333333333333
scalar Network.myue[693].myue #sinrGainMean 2.5
scalar Network.myue[694].myue #sinrGainMean 7.125
scalar Network.myue[695].myue #sinrGainMean 1
scalar Network.myue[696].myue #sinrGainMean 2.6
scalar Network.myue[697].myue #sinrGainMean 0
scalar Network.myue[698].myue #sinrGainMean 1.875
scalar Network.myue[699].myue #sinrGainMean 0
scalar Network.myue[700].myue #sinrGainMean 0.25
scalar Network.myue[701].myue #sinrGainMean 0.5
scalar Network.myue[702].myue #sinrGainMean 2.3333333333333
scalar Network.myue[703].myue #sinrGainMean 7.1666666666667
scalar Network.myue[704].myue #sinrGainMean 3.375
scalar Network.myue[705].myue #sinrGainMean 3.3333333333333
scalar Network.myue[706].myue #sinrGainMean 3.2
scalar Network.myue[707].myue #sinrGainMean 10
scalar Network.myue[708].myue #sinrGainMean 3.875
scalar Network.myue[709].myue #sinrGainMean 0
scalar Network.myue[710].myue #sinrGainMean 0.33333333333333
scalar Network.myue[711].myue #sinrGainMean 0
scalar Network.myue[712].myue #sinrGainMean 1
scalar Network.myue[713].myue #sinrGainMean 4.25
scalar Network.myue[714].myue #sinrGainMean 1.7142857142857
scalar Network.myue[715].myue #sinrGainMean 2.5
scalar Network.myue[716].myue #sinrGainMean 0.2
scalar Network.myue[717].myue #sinrGainMean 0
scalar Network.myue[718].myue #sinrGainMean 3
scalar Network.myue[719].myue #sinrGainMean 0
scalar Network.myue[720].myue #sinrGainMean 4
scalar Network.myue[721].myue #sinrGainMean 1
scalar Network.myue[722].myue #sinrGainMean 1
scalar Network.myue[723].myue #sinrGainMean 3.1666666666667
scalar Network.myue[724].myue #sinrGainMean 1.5
scalar Network.myue[725].myue #sinrGainMean 5.5
scalar Network.myue[726].myue #sinrGainMean 4.2
scalar Network.myue[727].myue #sinrGainMean 1.3333333333333
scalar Network.myue[728].myue #sinrGainMean 3.4285714285714
scalar Network.myue[729].myue #sinrGainMean 1.4444444444444
scalar Network.myue[730].myue #sinrGainMean 3.5714285714286
scalar Network.myue[731].myue #sinrGainMean 3
scalar Network.myue[732].myue #sinrGainMean 2.5
scalar Network.myue[733].myue #sinrGainMean 0
scalar Network.myue[734].myue #sinrGainMean 4.75
scalar Network.myue[735].myue #sinrGainMean 2.2
scalar Network.myue[736].myue #sinrGainMean 0
scalar Network.myue[737].myue #sinrGainMean 2
scalar Network.myue[738].myue #sinrGainMean 2
scalar Network.myue[739].myue #sinrGainMean 2.3333333333333
scalar Network.myue[740].myue #sinrGainMean 1.3333333333333
scalar Network.myue[741].myue #sinrGainMean 6.2
scalar Network.myue[742].myue #sinrGainMean 6.5
scalar Network.myue[743].myue #sinrGainMean 5
scalar Network.myue[744].myue #sinrGainMean 0
scalar Network.myue[745].myue #sinrGainMean 9.5
scalar Network.myue[746].myue #sinrGainMean 9.3333333333333
scalar Network.myue[747].myue #sinrGainMean 1.2
scalar Network.myue[748].myue #sinrGainMean 2.3333333333333
scalar Network.myue[749].myue #sinrGainMean 0
scalar Network.myue[750].myue #sinrGainMean 0
scalar Network.myue[751].myue #sinrGainMean 2.5
scalar Network.myue[752].myue #sinrGainMean 0
scalar Network.myue[753].myue #sinrGainMean 3
scalar Network.myue[754].myue #sinrGainMean 0
scalar Network.myue[755].myue #sinrGainMean 4.75
scalar Network.myue[756].myue #sinrGainMean 5
scalar Network.myue[757].myue #sinrGainMean 1.3333333333333
scalar Network.myue[758].myue #sinrGainMean 2.2
scalar Network.myue[759].myue #sinrGainMean 2.9166666666667
scalar Network.myue[760].myue #sinrGainMean 2.875
scalar Network.myue[761].myue #sinrGainMean 1.2
scalar Network.myue[762].myue #sinrGainMean 1.7777777777778
scalar Network.myue[763].myue #sinrGainMean 2.2857142857143
scalar Network.myue[764].myue #sinrGainMean 4.1666666666667
scalar Network.myue[765].myue #sinrGainMean 2.1428571428571
scalar Network.myue[766].myue #sinrGainMean 0
scalar Network.myue[767].myue #sinrGainMean 3.7142857142857
scalar Network.myue[768].myue #sinrGainMean 3
scalar Network.myue[769].myue #sinrGainMean 0
scalar Network.myue[770].myue #sinrGainMean 5.5
scalar Network.myue[771].myue #sinrGainMean 1.5
scalar Network.myue[772].myue #sinrGainMean 4.6666666666667
scalar Network.myue[773].myue #sinrGainMean 1.875
scalar Network.myue[774].myue #sinrGainMean 2
scalar Network.myue[775].myue #sinrGainMean 0
scalar Network.myue[776].myue #sinrGainMean 1.1428571428571
scalar Network.myue[777].myue #sinrGainMean 1.3333333333333
scalar Network.myue[778].myue #sinrGainMean 1.5
scalar Network.myue[779].myue #sinrGainMean 3.1428571428571
scalar Network.myue[780].myue #sinrGainMean 0.6
scalar Network.myue[781].myue #sinrGainMean 0
scalar Network.myue[782].myue #sinrGainMean 3.5
scalar Network.myue[783].myue #sinrGainMean 7.2
scalar Network.myue[784].myue #sinrGainMean 4.25
scalar Network.myue[785].myue #sinrGainMean 4.5
scalar Network.myue[786].myue #sinrGainMean 2.25
scalar Network.myue[787].myue #sinrGainMean 1.5
scalar Network.myue[788].myue #sinrGainMean 2.3333333333333
scalar Network.myue[789].myue #sinrGainMean 2.7
scalar Network.myue[790].myue #sinrGainMean 3.3333333333333
scalar Network.myue[791].myue #sinrGainMean 1.6
scalar Network.myue[792].myue #sinrGainMean 2.3333333333333
scalar Network.myue[793].myue #sinrGainMean 1.75
scalar Network.myue[794].myue #sinrGainMean 0.5
scalar Network.myue[795].myue #sinrGainMean 2.3333333333333
scalar Network.myue[796].myue #sinrGainMean 3.6666666666667
scalar Network.myue[797].myue #sinrGainMean 4.5
scalar Network.myue[798].myue #sinrGainMean 5.6
scalar Network.myue[799].myue #sinrGainMean 3
scalar Network.myue[800].myue #sinrGainMean 4.4285714285714
scalar Network.myue[801].myue #sinrGainMean 1.3333333333333
scalar Network.myue[802].myue #sinrGainMean 3.3333333333333
scalar Network.myue[803].myue #sinrGainMean 4.1428571428571
scalar Network.myue[804].myue #sinrGainMean 4.8
scalar Network.myue[805].myue #sinrGainMean 0
scalar Network.myue[806].myue #sinrGainMean 3.4
scalar Network.myue[807].myue #sinrGainMean 2.25
scalar Network.myue[808].myue #sinrGainMean 1.6666666666667
scalar Network.myue[809].myue #sinrGainMean 3
scalar Network.myue[810].myue #sinrGainMean 3.5
scalar Network.myue[811].myue #sinrGainMean 0
scalar Network.myue[812].myue #sinrGainMean 3.0909090909091
scalar Network.myue[813].myue #sinrGainMean 5.6
scalar Network.myue[814].myue #sinrGainMean 4.2
scalar Network.myue[815].myue #sinrGainMean 2
scalar Network.myue[816].myue #sinrGainMean 3.4
scalar Network.myue[817].myue #sinrGainMean 1.375
scalar Network.myue[818].myue #sinrGainMean 7.8333333333333
scalar Network.myue[819].myue #sinrGainMean 0
scalar Network.myue[820].myue #sinrGainMean 0
scalar Network.myue[821].myue #sinrGainMean 6.25
scalar Network.myue[822].myue #sinrGainMean 1.8
scalar Network.myue[823].myue #sinrGainMean 1.5
scalar Network.myue[824].myue #sinrGainMean 4.8
scalar Network.myue[825].myue #sinrGainMean 5.2
scalar Network.myue[826].myue #sinrGainMean 2.1666666666667
scalar Network.myue[827].myue #sinrGainMean 1.7142857142857
scalar Network.myue[828].myue #sinrGainMean 7.6
scalar Network.myue[829].myue #sinrGainMean 4.2857142857143
scalar Network.myue[830].myue #sinrGainMean 1.5
scalar Network.myue[831].myue #sinrGainMean 0
scalar Network.myue[832].myue #sinrGainMean 0
scalar Network.myue[833].myue #sinrGainMean 3.25
scalar Network.myue[834].myue #sinrGainMean 4
scalar Network.myue[835].myue #sinrGainMean 1.25
scalar Network.myue[836].myue #sinrGainMean 0
scalar Network.myue[837].myue #sinrGainMean 1.5
scalar Network.myue[838].myue #sinrGainMean 0.8
scalar Network.myue[839].myue #sinrGainMean 2.1666666666667
scalar Network.myue[840].myue #sinrGainMean 3.5
scalar Network.myue[841].myue #sinrGainMean 2
scalar Network.myue[842].myue #sinrGainMean 0
scalar Network.myue[843].myue #sinrGainMean 0
scalar Network.myue[844].myue #sinrGainMean 1.6666666666667
scalar Network.myue[845].myue #sinrGainMean 2
scalar Network.myue[846].myue #sinrGainMean 0
scalar Network.myue[847].myue #sinrGainMean 1.5
scalar Network.myue[848].myue #sinrGainMean 0
scalar Network.myue[849].myue #sinrGainMean 0
scalar Network.myue[850].myue #sinrGainMean 5.8333333333333
scalar Network.myue[851].myue #sinrGainMean 5.1666666666667
scalar Network.myue[852].myue #sinrGainMean 2.875
scalar Network.myue[853].myue #sinrGainMean 4.25
scalar Network.myue[854].myue #sinrGainMean 2.875
scalar Network.myue[855].myue #sinrGainMean 3.3333333333333
scalar Network.myue[856].myue #sinrGainMean 0
scalar Network.myue[857].myue #sinrGainMean 5
scalar Network.myue[858].myue #sinrGainMean 12.5
scalar Network.myue[859].myue #sinrGainMean 2.6666666666667
scalar Network.myue[860].myue #sinrGainMean 2
scalar Network.myue[861].myue #sinrGainMean 0
scalar Network.myue[862].myue #sinrGainMean 2.4444444444444
scalar Network.myue[863].myue #sinrGainMean 2.5
scalar Network.myue[864].myue #sinrGainMean 1.25
scalar Network.myue[865].myue #sinrGainMean 2.75
scalar Network.myue[866].myue #sinrGainMean 5.4
scalar Network.myue[867].myue #sinrGainMean 0
scalar Network.myue[868].myue #sinrGainMean 1.6666666666667
scalar Network.myue[869].myue #sinrGainMean 3.3333333333333
scalar Network.myue[870].myue #sinrGainMean 0
scalar Network.myue[871].myue #sinrGainMean 4.2
scalar Network.myue[872].myue #sinrGainMean 5.25
scalar Network.myue[873].myue #sinrGainMean 2.5555555555556
scalar Network.myue[874].myue #sinrGainMean 2.5
scalar Network.myue[875].myue #sinrGainMean 1.6666666666667
scalar Network.myue[876].myue #sinrGainMean 5
scalar Network.myue[877].myue #sinrGainMean 0
scalar Network.myue[878].myue #sinrGainMean 1
scalar Network.myue[879].myue #sinrGainMean 0
scalar Network.myue[880].myue #sinrGainMean 6
scalar Network.myue[881].myue #sinrGainMean 3.6
scalar Network.myue[882].myue #sinrGainMean 3.5
scalar Network.myue[883].myue #sinrGainMean 9.8
scalar Network.myue[884].myue #sinrGainMean 2.8888888888889
scalar Network.myue[885].myue #sinrGainMean 2.4444444444444
scalar Network.myue[886].myue #sinrGainMean 2.375
scalar Network.myue[887].myue #sinrGainMean 0
scalar Network.myue[888].myue #sinrGainMean 5.6
scalar Network.myue[889].myue #sinrGainMean 1.6666666666667
scalar Network.myue[890].myue #sinrGainMean 5.3333333333333
scalar Network.myue[891].myue #sinrGainMean 0.66666666666667
scalar Network.myue[892].myue #sinrGainMean 1.2
scalar Network.myue[893].myue #sinrGainMean 2.75
scalar Network.myue[894].myue #sinrGainMean 3
scalar Network.myue[895].myue #sinrGainMean 1.3333333333333
scalar Network.myue[896].myue #sinrGainMean 1.8333333333333
scalar Network.myue[897].myue #sinrGainMean 1.5
scalar Network.myue[898].myue #sinrGainMean 0
scalar Network.myue[899].myue #sinrGainMean 4.75
scalar Network.myue[900].myue #sinrGainMean 8.5454545454545
scalar Network.myue[901].myue #sinrGainMean 6.6666666666667
scalar Network.myue[902].myue #sinrGainMean 0
scalar Network.myue[903].myue #sinrGainMean 0
scalar Network.myue[904].myue #sinrGainMean 0.8
scalar Network.myue[905].myue #sinrGainMean 5.8
scalar Network.myue[906].myue #sinrGainMean 3.25
scalar Network.myue[907].myue #sinrGainMean 0
scalar Network.myue[908].myue #sinrGainMean 6.875
scalar Network.myue[909].myue #sinrGainMean 2.8
scalar Network.myue[910].myue #sinrGainMean 1.2
scalar Network.myue[911].myue #sinrGainMean 0
scalar Network.myue[912].myue #sinrGainMean 6.2
scalar Network.myue[913].myue #sinrGainMean 3.875
scalar Network.myue[914].myue #sinrGainMean 2.5
scalar Network.myue[915].myue #sinrGainMean 2.5
scalar Network.myue[916].myue #sinrGainMean 2.6666666666667
scalar Network.myue[917].myue #sinrGainMean 3.8
scalar Network.myue[918].myue #sinrGainMean 2.6666666666667
scalar Network.myue[919].myue #sinrGainMean 5.1666666666667
scalar Network.myue[920].myue #sinrGainMean 4.6666666666667
scalar Network.myue[921].myue #sinrGainMean 2.4285714285714
scalar Network.myue[922].myue #sinrGainMean 3
scalar Network.myue[923].myue #sinrGainMean 3.8
scalar Network.myue[924].myue #sinrGainMean 0
scalar Network.myue[925].myue #sinrGainMean 6.25
scalar Network.myue[926].myue #sinrGainMean 1.8
scalar Network.myue[927].myue #sinrGainMean 1.6
scalar Network.myue[928].myue #sinrGainMean 0
scalar Network.myue[929].myue #sinrGainMean 3.2
scalar Network.myue[930].myue #sinrGainMean 4.4285714285714
scalar Network.myue[931].myue #sinrGainMean 5.2857142857143
scalar Network.myue[932].myue #sinrGainMean 0
scalar Network.myue[933].myue #sinrGainMean 0
scalar Network.myue[934].myue #sinrGainMean 3.1111111111111
scalar Network.myue[935].myue #sinrGainMean 1.8571428571429
scalar Network.myue[936].myue #sinrGainMean 2.6666666666667
scalar Network.myue[937].myue #sinrGainMean 0.6
scalar Network.myue[938].myue #sinrGainMean 3
scalar Network.myue[939].myue #sinrGainMean 2.875
scalar Network.myue[940].myue #sinrGainMean 3.5
scalar Network.myue[941].myue #sinrGainMean 2.1666666666667
scalar Network.myue[942].myue #sinrGainMean 0
scalar Network.myue[943].myue #sinrGainMean 6.7142857142857
scalar Network.myue[944].myue #sinrGainMean 2
scalar Network.myue[945].myue #sinrGainMean 2.25
scalar Network.myue[946].myue #sinrGainMean 1.4
scalar Network.myue[947].myue #sinrGainMean 1.1428571428571
scalar Network.myue[948].myue #sinrGainMean 1
scalar Network.myue[949].myue #sinrGainMean 1.5
scalar Network.myue[950].myue #sinrGainMean 5.4
scalar Network.myue[951].myue #sinrGainMean 0
scalar Network.myue[952].myue #sinrGainMean 1.875
scalar Network.myue[953].myue #sinrGainMean 2
scalar Network.myue[954].myue #sinrGainMean 4.25
scalar Network.myue[955].myue #sinrGainMean 6.25
scalar Network.myue[956].myue #sinrGainMean 6.1
scalar Network.myue[957].myue #sinrGainMean 2.3
scalar Network.myue[958].myue #sinrGainMean 0
scalar Network.myue[959].myue #sinrGainMean 3.3333333333333
scalar Network.myue[960].myue #sinrGainMean 1.6666666666667
scalar Network.myue[961].myue #sinrGainMean 3
scalar Network.myue[962].myue #sinrGainMean 0
scalar Network.myue[963].myue #sinrGainMean 4.7777777777778
scalar Network.myue[964].myue #sinrGainMean 4.4
scalar Network.myue[965].myue #sinrGainMean 0
scalar Network.myue[966].myue #sinrGainMean 4.75
scalar Network.myue[967].myue #sinrGainMean 4.6
scalar Network.myue[968].myue #sinrGainMean 2
scalar Network.myue[969].myue #sinrGainMean 2.8571428571429
scalar Network.myue[970].myue #sinrGainMean 1.75
scalar Network.myue[971].myue #sinrGainMean 6.5
scalar Network.myue[972].myue #sinrGainMean 0
scalar Network.myue[973].myue #sinrGainMean 4.1666666666667
scalar Network.myue[974].myue #sinrGainMean 2.4
scalar Network.myue[975].myue #sinrGainMean 2.6666666666667
scalar Network.myue[976].myue #sinrGainMean 4.25
scalar Network.myue[977].myue #sinrGainMean 3.375
scalar Network.myue[978].myue #sinrGainMean 3.3333333333333
scalar Network.myue[979].myue #sinrGainMean 2
scalar Network.myue[980].myue #sinrGainMean 2.6
scalar Network.myue[981].myue #sinrGainMean 1.5
scalar Network.myue[982].myue #sinrGainMean 2.5714285714286
scalar Network.myue[983].myue #sinrGainMean 0
scalar Network.myue[984].myue #sinrGainMean 1
scalar Network.myue[985].myue #sinrGainMean 2.125
scalar Network.myue[986].myue #sinrGainMean 1.4
scalar Network.myue[987].myue #sinrGainMean 4.5
scalar Network.myue[988].myue #sinrGainMean 0
scalar Network.myue[989].myue #sinrGainMean 2.375
scalar Network.myue[990].myue #sinrGainMean 3
scalar Network.myue[991].myue #sinrGainMean 4.25
scalar Network.myue[992].myue #sinrGainMean 2.4
scalar Network.myue[993].myue #sinrGainMean 2.1111111111111
scalar Network.myue[994].myue #sinrGainMean 2.5
scalar Network.myue[995].myue #sinrGainMean 3
scalar Network.myue[996].myue #sinrGainMean 0.75
scalar Network.myue[997].myue #sinrGainMean 1.8571428571429
scalar Network.myue[998].myue #sinrGainMean 6
scalar Network.myue[999].myue #sinrGainMean 4
scalar Network.myue[1000].myue #sinrGainMean 1.625
scalar Network.myue[1001].myue #sinrGainMean 1.8
scalar Network.myue[1002].myue #sinrGainMean 4
scalar Network.myue[1003].myue #sinrGainMean 1.2
scalar Network.myue[1004].myue #sinrGainMean 5.8333333333333
scalar Network.myue[1005].myue #sinrGainMean 0
scalar Network.myue[1006].myue #sinrGainMean 0
scalar Network.myue[1007].myue #sinrGainMean 0
scalar Network.myue[1008].myue #sinrGainMean 2.4
scalar Network.myue[1009].myue #sinrGainMean 2.2
scalar Network.myue[1010].myue #sinrGainMean 3.5
scalar Network.myue[1011].myue #sinrGainMean 5
scalar Network.myue[1012].myue #sinrGainMean 1.6666666666667
scalar Network.myue[1013].myue #sinrGainMean 1.875
scalar Network.myue[1014].myue #sinrGainMean 2.2857142857143
scalar Network.myue[1015].myue #sinrGainMean 3.8
scalar Network.myue[1016].myue #sinrGainMean 0.83333333333333
scalar Network.myue[1017].myue #sinrGainMean 1.5
scalar Network.myue[1018].myue #sinrGainMean 3.5714285714286
scalar Network.myue[1019].myue #sinrGainMean 2.8
scalar Network.myue[1020].myue #sinrGainMean 3.5
scalar Network.myue[1021].myue #sinrGainMean 2.25
scalar Network.myue[1022].myue #sinrGainMean 4.3333333333333
scalar Network.myue[1023].myue #sinrGainMean 0
scalar Network.myue[1024].myue #sinrGainMean 3.4285714285714
scalar Network.myue[1025].myue #sinrGainMean 1
scalar Network.myue[1026].myue #sinrGainMean 1.8333333333333
scalar Network.myue[1027].myue #sinrGainMean 6.4
scalar Network.myue[1028].myue #sinrGainMean 3.7142857142857
scalar Network.myue[1029].myue #sinrGainMean 4
scalar Network.myue[1030].myue #sinrGainMean 3.6666666666667
scalar Network.myue[1031].myue #sinrGainMean 3.8333333333333
scalar Network.myue[1032].myue #sinrGainMean 4.6
scalar Network.myue[1033].myue #sinrGainMean 0
scalar Network.myue[1034].myue #sinrGainMean 2.6
scalar Network.myue[1035].myue #sinrGainMean 4
scalar Network.myue[1036].myue #sinrGainMean 2.7777777777778
scalar Network.myue[1037].myue #sinrGainMean 2.25
scalar Network.myue[1038].myue #sinrGainMean 6
scalar Network.myue[1039].myue #sinrGainMean 0
scalar Network.myue[1040].myue #sinrGainMean 0
scalar Network.myue[1041].myue #sinrGainMean 2.75
scalar Network.myue[1042].myue #sinrGainMean 7.25
scalar Network.myue[1043].myue #sinrGainMean 2.8
scalar Network.myue[1044].myue #sinrGainMean 1.5833333333333
scalar Network.myue[1045].myue #sinrGainMean 4.6666666666667
scalar Network.myue[1046].myue #sinrGainMean 3.2857142857143
scalar Network.myue[1047].myue #sinrGainMean 0
scalar Network.myue[1048].myue #sinrGainMean 3
scalar Network.myue[1049].myue #sinrGainMean 6.8571428571429
scalar Network.myue[1050].myue #sinrGainMean 0
scalar Network.myue[1051].myue #sinrGainMean 4.8
scalar Network.myue[1052].myue #sinrGainMean 1.4
scalar Network.myue[1053].myue #sinrGainMean 2.6666666666667
scalar Network.myue[1054].myue #sinrGainMean 7.5
scalar Network.myue[1055].myue #sinrGainMean 4.6666666666667
scalar Network.myue[1056].myue #sinrGainMean 4.125
scalar Network.myue[1057].myue #sinrGainMean 4.6
scalar Network.myue[1058].myue #sinrGainMean 2
scalar Network.myue[1059].myue #sinrGainMean 5.1428571428571
scalar Network.myue[1060].myue #sinrGainMean 0
scalar Network.myue[1061].myue #sinrGainMean 2.7777777777778
scalar Network.myue[1062].myue #sinrGainMean 2
scalar Network.myue[1063].myue #sinrGainMean 0
scalar Network.myue[1064].myue #sinrGainMean 2.5
scalar Network.myue[1065].myue #sinrGainMean 3.4285714285714
scalar Network.myue[1066].myue #sinrGainMean 3
scalar Network.myue[1067].myue #sinrGainMean 5.7142857142857
scalar Network.myue[1068].myue #sinrGainMean 0
scalar Network.myue[1069].myue #sinrGainMean 4.2
scalar Network.myue[1070].myue #sinrGainMean 4.25
scalar Network.myue[1071].myue #sinrGainMean 3.1666666666667
scalar Network.myue[1072].myue #sinrGainMean 0
scalar Network.myue[1073].myue #sinrGainMean 7.4
scalar Network.myue[1074].myue #sinrGainMean 4.25
scalar Network.myue[1075].myue #sinrGainMean 7
scalar Network.myue[1076].myue #sinrGainMean 2.5
scalar Network.myue[1077].myue #sinrGainMean 1.25
scalar Network.myue[1078].myue #sinrGainMean 0
scalar Network.myue[1079].myue #sinrGainMean 3.75
scalar Network.myue[1080].myue #sinrGainMean 2.3333333333333
scalar Network.myue[1081].myue #sinrGainMean 2.4
scalar Network.myue[1082].myue #sinrGainMean 2.25
scalar Network.myue[1083].myue #sinrGainMean 7.75
scalar Network.myue[1084].myue #sinrGainMean 1.6666666666667
scalar Network.myue[1085].myue #sinrGainMean 1
scalar Network.myue[1086].myue #sinrGainMean 1.7142857142857
scalar Network.myue[1087].myue #sinrGainMean 6.8888888888889
scalar Network.myue[1088].myue #sinrGainMean 0
scalar Network.myue[1089].myue #sinrGainMean 3.3333333333333
scalar Network.myue[1090].myue #sinrGainMean 0
scalar Network.myue[1091].myue #sinrGainMean 1.5714285714286
scalar Network.myue[1092].myue #sinrGainMean 3.4
scalar Network.myue[1093].myue #sinrGainMean 1.5714285714286
scalar Network.myue[1094].myue #sinrGainMean 3.8571428571429
scalar Network.myue[1095].myue #sinrGainMean 0
scalar Network.myue[1096].myue #sinrGainMean 5.3333333333333
scalar Network.myue[1097].myue #sinrGainMean 3.5714285714286
scalar Network.myue[1098].myue #sinrGainMean 7.4
scalar Network.myue[1099].myue #sinrGainMean 0
scalar Network.myue[1100].myue #sinrGainMean 0.71428571428571
scalar Network.myue[1101].myue #sinrGainMean 4.8
scalar Network.myue[1102].myue #sinrGainMean 1.625
scalar Network.myue[1103].myue #sinrGainMean 1.5
scalar Network.myue[1104].myue #sinrGainMean 3
scalar Network.myue[1105].myue #sinrGainMean 4.75
scalar Network.myue[1106].myue #sinrGainMean 1.1666666666667
scalar Network.myue[1107].myue #sinrGainMean 6.2
scalar Network.myue[1108].myue #sinrGainMean 6
scalar Network.myue[1109].myue #sinrGainMean 0.5
scalar Network.myue[1110].myue #sinrGainMean 1.8333333333333
scalar Network.myue[1111].myue #sinrGainMean 2.4
scalar Network.myue[1112].myue #sinrGainMean 0
scalar Network.myue[1113].myue #sinrGainMean 1.6666666666667
scalar Network.myue[1114].myue #sinrGainMean 0
scalar Network.myue[1115].myue #sinrGainMean 0
scalar Network.myue[1116].myue #sinrGainMean 2
scalar Network.myue[1117].myue #sinrGainMean 0
scalar Network.myue[1118].myue #sinrGainMean 1
scalar Network.myue[1119].myue #sinrGainMean 0
scalar Network.myue[1120].myue #sinrGainMean 4.2
scalar Network.myue[1121].myue #sinrGainMean 4
scalar Network.myue[1122].myue #sinrGainMean 2
scalar Network.myue[1123].myue #sinrGainMean 4.2
scalar Network.myue[1124].myue #sinrGainMean 0.83333333333333
scalar Network.myue[1125].myue #sinrGainMean 3.1428571428571
scalar Network.myue[1126].myue #sinrGainMean 2
scalar Network.myue[1127].myue #sinrGainMean 3.0909090909091
scalar Network.myue[1128].myue #sinrGainMean 6
scalar Network.myue[1129].myue #sinrGainMean 2.8333333333333
scalar Network.myue[1130].myue #sinrGainMean 3
scalar Network.myue[1131].myue #sinrGainMean 5.7142857142857
scalar Network.myue[1132].myue #sinrGainMean 0
scalar Network.myue[1133].myue #sinrGainMean 1.6666666666667
scalar Network.myue[1134].myue #sinrGainMean 1.3333333333333
scalar Network.myue[1135].myue #sinrGainMean 2
scalar Network.myue[1136].myue #sinrGainMean 4
scalar Network.myue[1137].myue #sinrGainMean 1.2
scalar Network.myue[1138].myue #sinrGainMean 0
scalar Network.myue[1139].myue #sinrGainMean 1.5
scalar Network.myue[1140].myue #sinrGainMean 0
scalar Network.myue[1141].myue #sinrGainMean 0.4
scalar Network.myue[1142].myue #sinrGainMean 3.5
scalar Network.myue[1143].myue #sinrGainMean 2.5
scalar Network.myue[1144].myue #sinrGainMean 0
scalar Network.myue[1145].myue #sinrGainMean 3.3333333333333
scalar Network.myue[1146].myue #sinrGainMean 4
scalar Network.myue[1147].myue #sinrGainMean 3.1818181818182
scalar Network.myue[1148].myue #sinrGainMean 5.8
scalar Network.myue[1149].myue #sinrGainMean 0
scalar Network.myue[1150].myue #sinrGainMean 0
scalar Network.myue[1151].myue #sinrGainMean 3.25
scalar Network.myue[1152].myue #sinrGainMean 2.2
scalar Network.myue[1153].myue #sinrGainMean 1.75
scalar Network.myue[1154].myue #sinrGainMean 1.7142857142857
scalar Network.myue[1155].myue #sinrGainMean 3.1428571428571
scalar Network.myue[1156].myue #sinrGainMean 1.3333333333333
scalar Network.myue[1157].myue #sinrGainMean 6.2
scalar Network.myue[1158].myue #sinrGainMean 3.1111111111111
scalar Network.myue[1159].myue #sinrGainMean 2
scalar Network.myue[1160].myue #sinrGainMean 0
scalar Network.myue[1161].myue #sinrGainMean 5.375
scalar Network.myue[1162].myue #sinrGainMean 0
scalar Network.myue[1163].myue #sinrGainMean 1
scalar Network.myue[1164].myue #sinrGainMean 2
scalar Network.myue[1165].myue #sinrGainMean 6.75
scalar Network.myue[1166].myue #sinrGainMean 0
scalar Network.myue[1167].myue #sinrGainMean 5.25
scalar Network.myue[1168].myue #sinrGainMean 2.5714285714286
scalar Network.myue[1169].myue #sinrGainMean 1
scalar Network.myue[1170].myue #sinrGainMean 2
scalar Network.myue[1171].myue #sinrGainMean 4.125
scalar Network.myue[1172].myue #sinrGainMean 5
scalar Network.myue[1173].myue #sinrGainMean 7.1666666666667
scalar Network.myue[1174].myue #sinrGainMean 0.85714285714286
scalar Network.myue[1175].myue #sinrGainMean 1
scalar Network.myue[1176].myue #sinrGainMean 3.3333333333333
scalar Network.myue[1177].myue #sinrGainMean 1.8
scalar Network.myue[1178].myue #sinrGainMean 3
scalar Network.myue[1179].myue #sinrGainMean 1.125
scalar Network.myue[1180].myue #sinrGainMean 1.75
scalar Network.myue[1181].myue #sinrGainMean 2.1111111111111
scalar Network.myue[1182].myue #sinrGainMean 2.25
scalar Network.myue[1183].myue #sinrGainMean 2.1428571428571
scalar Network.myue[1184].myue #sinrGainMean 2.4285714285714
scalar Network.myue[1185].myue #sinrGainMean 4.25
scalar Network.myue[1186].myue #sinrGainMean 4.5
scalar Network.myue[1187].myue #sinrGainMean 4.75
scalar Network.myue[1188].myue #sinrGainMean 5.2
scalar Network.myue[1189].myue #sinrGainMean 6.6
scalar Network.myue[1190].myue #sinrGainMean 4.3333333333333
scalar Network.myue[1191].myue #sinrGainMean 1.5
scalar Network.myue[1192].myue #sinrGainMean 2.4
scalar Network.myue[1193].myue #sinrGainMean 0.75
scalar Network.myue[1194].myue #sinrGainMean 1.8333333333333
scalar Network.myue[1195].myue #sinrGainMean 0
scalar Network.myue[1196].myue #sinrGainMean 5.2
scalar Network.myue[1197].myue #sinrGainMean 0.66666666666667
scalar Network.myue[1198].myue #sinrGainMean 4.875
scalar Network.myue[1199].myue #sinrGainMean 3.8333333333333
scalar Network.myue[1200].myue #sinrGainMean 1.8571428571429
scalar Network.myue[1201].myue #sinrGainMean 1.6666666666667
scalar Network.myue[1202].myue #sinrGainMean 3
scalar Network.myue[1203].myue #sinrGainMean 0
scalar Network.myue[1204].myue #sinrGainMean 2
scalar Network.myue[1205].myue #sinrGainMean 3.4
scalar Network.myue[1206].myue #sinrGainMean 2.25
scalar Network.myue[1207].myue #sinrGainMean 0
scalar Network.myue[1208].myue #sinrGainMean 2.1666666666667
scalar Network.myue[1209].myue #sinrGainMean 2.1428571428571
scalar Network.myue[1210].myue #sinrGainMean 5.4
scalar Network.myue[1211].myue #sinrGainMean 6.6
scalar Network.myue[1212].myue #sinrGainMean 2.5
scalar Network.myue[1213].myue #sinrGainMean 1.8
scalar Network.myue[1214].myue #sinrGainMean 3
scalar Network.myue[1215].myue #sinrGainMean 5.4285714285714
scalar Network.myue[1216].myue #sinrGainMean 1.8333333333333
scalar Network.myue[1217].myue #sinrGainMean 2.375
scalar Network.myue[1218].myue #sinrGainMean 3.7
scalar Network.myue[1219].myue #sinrGainMean 0
scalar Network.myue[1220].myue #sinrGainMean 5.125
scalar Network.myue[1221].myue #sinrGainMean 4.6666666666667
scalar Network.myue[1222].myue #sinrGainMean 0
scalar Network.myue[1223].myue #sinrGainMean 2.4
scalar Network.myue[1224].myue #sinrGainMean 1.3333333333333
scalar Network.myue[1225].myue #sinrGainMean 0
scalar Network.myue[1226].myue #sinrGainMean 2.4
scalar Network.myue[1227].myue #sinrGainMean 3.3333333333333
scalar Network.myue[1228].myue #sinrGainMean 1.8571428571429
scalar Network.myue[1229].myue #sinrGainMean 6.6666666666667
scalar Network.myue[1230].myue #sinrGainMean 5
scalar Network.myue[1231].myue #sinrGainMean 0
scalar Network.myue[1232].myue #sinrGainMean 3.25
scalar Network.myue[1233].myue #sinrGainMean 2.25
scalar Network.myue[1234].myue #sinrGainMean 4.2
scalar Network.myue[1235].myue #sinrGainMean 3.7142857142857
scalar Network.myue[1236].myue #sinrGainMean 2.5714285714286
scalar Network.myue[1237].myue #sinrGainMean 0
scalar Network.myue[1238].myue #sinrGainMean 2.2857142857143
scalar Network.myue[1239].myue #sinrGainMean 1.2857142857143
scalar Network.myue[1240].myue #sinrGainMean 1.4
scalar Network.myue[1241].myue #sinrGainMean 0
scalar Network.myue[1242].myue #sinrGainMean 2.875
scalar Network.myue[1243].myue #sinrGainMean 2.5714285714286
scalar Network.myue[1244].myue #sinrGainMean 3.4
scalar Network.myue[1245].myue #sinrGainMean 2.25
scalar Network.myue[1246].myue #sinrGainMean 5
scalar Network.myue[1247].myue #sinrGainMean 5.4285714285714
scalar Network.myue[1248].myue #sinrGainMean 1.2857142857143
scalar Network.myue[1249].myue #sinrGainMean 4.3
scalar Network.myue[1250].myue #sinrGainMean 3.25
scalar Network.myue[1251].myue #sinrGainMean 2.5
scalar Network.myue[1252].myue #sinrGainMean 2.2857142857143
scalar Network.myue[1253].myue #sinrGainMean 2.1428571428571
scalar Network.myue[1254].myue #sinrGainMean 0
scalar Network.myue[1255].myue #sinrGainMean 0
scalar Network.myue[1256].myue #sinrGainMean 4.25
scalar Network.myue[1257].myue #sinrGainMean 3.1428571428571
scalar Network.myue[1258].myue #sinrGainMean 4
scalar Network.myue[1259].myue #sinrGainMean 1.8333333333333
scalar Network.myue[1260].myue #sinrGainMean 1.2
scalar Network.myue[1261].myue #sinrGainMean 3.75
scalar Network.myue[1262].myue #sinrGainMean 5
scalar Network.myue[1263].myue #sinrGainMean 3
scalar Network.myue[1264].myue #sinrGainMean 0.33333333333333
scalar Network.myue[1265].myue #sinrGainMean 3.6666666666667
scalar Network.myue[1266].myue #sinrGainMean 2.75
scalar Network.myue[1267].myue #sinrGainMean 2.8333333333333
scalar Network.myue[1268].myue #sinrGainMean 1
scalar Network.myue[1269].myue #sinrGainMean 3
scalar Network.myue[1270].myue #sinrGainMean 3.5714285714286
scalar Network.myue[1271].myue #sinrGainMean 5.25
scalar Network.myue[1272].myue #sinrGainMean 0.8
scalar Network.myue[1273].myue #sinrGainMean 5
scalar Network.myue[1274].myue #sinrGainMean 1.7142857142857
scalar Network.myue[1275].myue #sinrGainMean 1.3333333333333
scalar Network.myue[1276].myue #sinrGainMean 1.375
scalar Network.myue[1277].myue #sinrGainMean 4.5714285714286
scalar Network.myue[1278].myue #sinrGainMean 2
scalar Network.myue[1279].myue #sinrGainMean 6.125
scalar Network.myue[1280].myue #sinrGainMean 3.1666666666667
scalar Network.myue[1281].myue #sinrGainMean 0.5
scalar Network.myue[1282].myue #sinrGainMean 0
scalar Network.myue[1283].myue #sinrGainMean 1.6666666666667
scalar Network.myue[1284].myue #sinrGainMean 4.8888888888889
scalar Network.myue[1285].myue #sinrGainMean 0
scalar Network.myue[1286].myue #sinrGainMean 1.1666666666667
scalar Network.myue[1287].myue #sinrGainMean 3.8
scalar Network.myue[1288].myue #sinrGainMean 1.6666666666667
scalar Network.myue[1289].myue #sinrGainMean 1.5
scalar Network.myue[1290].myue #sinrGainMean 1.375
scalar Network.myue[1291].myue #sinrGainMean 3.1666666666667
scalar Network.myue[1292].myue #sinrGainMean 0
scalar Network.myue[1293].myue #sinrGainMean 3.2857142857143
scalar Network.myue[1294].myue #sinrGainMean 5
scalar Network.myue[1295].myue #sinrGainMean 6
scalar Network.myue[1296].myue #sinrGainMean 0
scalar Network.myue[1297].myue #sinrGainMean 2.7142857142857
scalar Network.myue[1298].myue #sinrGainMean 0.5
scalar Network.myue[1299].myue #sinrGainMean 0
scalar Network.myue[1300].myue #sinrGainMean 6.4285714285714
scalar Network.myue[1301].myue #sinrGainMean 2
scalar Network.myue[1302].myue #sinrGainMean 0
scalar Network.myue[1303].myue #sinrGainMean 0
scalar Network.myue[1304].myue #sinrGainMean 6.1666666666667
scalar Network.myue[1305].myue #sinrGainMean 0
scalar Network.myue[1306].myue #sinrGainMean 2.8
scalar Network.myue[1307].myue #sinrGainMean 2.125
scalar Network.myue[1308].myue #sinrGainMean 1.4
scalar Network.myue[1309].myue #sinrGainMean 0.83333333333333
scalar Network.myue[1310].myue #sinrGainMean 0
scalar Network.myue[1311].myue #sinrGainMean 1.7142857142857
scalar Network.myue[1312].myue #sinrGainMean 6
scalar Network.myue[1313].myue #sinrGainMean 0
scalar Network.myue[1314].myue #sinrGainMean 3.3333333333333
scalar Network.myue[1315].myue #sinrGainMean 1
scalar Network.myue[1316].myue #sinrGainMean 1.8571428571429
scalar Network.myue[1317].myue #sinrGainMean 2.4285714285714
scalar Network.myue[1318].myue #sinrGainMean 5
scalar Network.myue[1319].myue #sinrGainMean 6.2
scalar Network.myue[1320].myue #sinrGainMean 3
scalar Network.myue[1321].myue #sinrGainMean 2.5
scalar Network.myue[1322].myue #sinrGainMean 6.8
scalar Network.myue[1323].myue #sinrGainMean 2
scalar Network.myue[1324].myue #sinrGainMean 4
scalar Network.myue[1325].myue #sinrGainMean 1.25
scalar Network.myue[1326].myue #sinrGainMean 0
scalar Network.myue[1327].myue #sinrGainMean 4.1428571428571
scalar Network.myue[1328].myue #sinrGainMean 4.5
scalar Network.myue[1329].myue #sinrGainMean 2.75
scalar Network.myue[1330].myue #sinrGainMean 2.2857142857143
scalar Network.myue[1331].myue #sinrGainMean 3
scalar Network.myue[1332].myue #sinrGainMean 1.5
scalar Network.myue[1333].myue #sinrGainMean 0
scalar Network.myue[1334].myue #sinrGainMean 4.6666666666667
scalar Network.myue[1335].myue #sinrGainMean 6.6666666666667
scalar Network.myue[1336].myue #sinrGainMean 3
scalar Network.myue[1337].myue #sinrGainMean 0
scalar Network.myue[1338].myue #sinrGainMean 8.125
scalar Network.myue[1339].myue #sinrGainMean 2.125
scalar Network.myue[1340].myue #sinrGainMean 4.4
scalar Network.myue[1341].myue #sinrGainMean 4.7142857142857
scalar Network.myue[1342].myue #sinrGainMean 2.5
scalar Network.myue[1343].myue #sinrGainMean 5.1666666666667
scalar Network.myue[1344].myue #sinrGainMean 1.75
scalar Network.myue[1345].myue #sinrGainMean 2.8571428571429
scalar Network.myue[1346].myue #sinrGainMean 5.25
scalar Network.myue[1347].myue #sinrGainMean 2.4
scalar Network.myue[1348].myue #sinrGainMean 0
scalar Network.myue[1349].myue #sinrGainMean 8
scalar Network.myue[1350].myue #sinrGainMean 3
scalar Network.myue[1351].myue #sinrGainMean 1.6666666666667
scalar Network.myue[1352].myue #sinrGainMean 2.7142857142857
scalar Network.myue[1353].myue #sinrGainMean 2.5
scalar Network.myue[1354].myue #sinrGainMean 4.5
scalar Network.myue[1355].myue #sinrGainMean 0
scalar Network.myue[1356].myue #sinrGainMean 1.8
scalar Network.myue[1357].myue #sinrGainMean 2
scalar Network.myue[1358].myue #sinrGainMean 1.6666666666667
scalar Network.myue[1359].myue #sinrGainMean 3.25
scalar Network.myue[1360].myue #sinrGainMean 0.8
scalar Network.myue[1361].myue #sinrGainMean 5.2857142857143
scalar Network.myue[1362].myue #sinrGainMean 2.8571428571429
scalar Network.myue[1363].myue #sinrGainMean 2.4285714285714
scalar Network.myue[1364].myue #sinrGainMean 4.5
scalar Network.myue[1365].myue #sinrGainMean 0
scalar Network.myue[1366].myue #sinrGainMean 0
scalar Network.myue[1367].myue #sinrGainMean 2.4
scalar Network.myue[1368].myue #sinrGainMean 1.4444444444444
scalar Network.myue[1369].myue #sinrGainMean 5.5
scalar Network.myue[1370].myue #sinrGainMean 2.1428571428571
scalar Network.myue[1371].myue #sinrGainMean 0
scalar Network.myue[1372].myue #sinrGainMean 1.25
scalar Network.myue[1373].myue #sinrGainMean 5.8
scalar Network.myue[1374].myue #sinrGainMean 6.6666666666667
scalar Network.myue[1375].myue #sinrGainMean 1
scalar Network.myue[1376].myue #sinrGainMean 2.2
scalar Network.myue[1377].myue #sinrGainMean 0
scalar Network.myue[1378].myue #sinrGainMean 4.6666666666667
scalar Network.myue[1379].myue #sinrGainMean 4
scalar Network.myue[1380].myue #sinrGainMean 0
scalar Network.myue[1381].myue #sinrGainMean 3.75
scalar Network.myue[1382].myue #sinrGainMean 2.375
scalar Network.myue[1383].myue #sinrGainMean 1
scalar Network.myue[1384].myue #sinrGainMean 0
scalar Network.myue[1385].myue #sinrGainMean 1.5
scalar Network.myue[1386].myue #sinrGainMean 2.25
scalar Network.myue[1387].myue #sinrGainMean 5
scalar Network.myue[1388].myue #sinrGainMean 2.3
scalar Network.myue[1389].myue #sinrGainMean 2.1666666666667
scalar Network.myue[1390].myue #sinrGainMean 1
scalar Network.myue[1391].myue #sinrGainMean 4
scalar Network.myue[1392].myue #sinrGainMean 2.2
scalar Network.myue[1393].myue #sinrGainMean 1.1428571428571
scalar Network.myue[1394].myue #sinrGainMean 4.2
scalar Network.myue[1395].myue #sinrGainMean 0.71428571428571
scalar Network.myue[1396].myue #sinrGainMean 0.71428571428571
scalar Network.myue[1397].myue #sinrGainMean 1.8
scalar Network.myue[1398].myue #sinrGainMean 3.5714285714286
scalar Network.myue[1399].myue #sinrGainMean 2.125
scalar Network.myue[1400].myue #sinrGainMean 4.3333333333333
scalar Network.myue[1401].myue #sinrGainMean 0
scalar Network.myue[1402].myue #sinrGainMean 1.75
scalar Network.myue[1403].myue #sinrGainMean 0
scalar Network.myue[1404].myue #sinrGainMean 7.8333333333333
scalar Network.myue[1405].myue #sinrGainMean 1.4285714285714
scalar Network.myue[1406].myue #sinrGainMean 2.4
scalar Network.myue[1407].myue #sinrGainMean 0
scalar Network.myue[1408].myue #sinrGainMean 2.75
scalar Network.myue[1409].myue #sinrGainMean 4.5
scalar Network.myue[1410].myue #sinrGainMean 1.375
scalar Network.myue[1411].myue #sinrGainMean 1.25
scalar Network.myue[1412].myue #sinrGainMean 5.8571428571429
scalar Network.myue[1413].myue #sinrGainMean 2.4444444444444
scalar Network.myue[1414].myue #sinrGainMean 2.375
scalar Network.myue[1415].myue #sinrGainMean 2.8
scalar Network.myue[1416].myue #sinrGainMean 2.6
scalar Network.myue[1417].myue #sinrGainMean 1.75
scalar Network.myue[1418].myue #sinrGainMean 4.75
scalar Network.myue[1419].myue #sinrGainMean 3.625
scalar Network.myue[1420].myue #sinrGainMean 2.5
scalar Network.myue[1421].myue #sinrGainMean 1
scalar Network.myue[1422].myue #sinrGainMean 10.6
scalar Network.myue[1423].myue #sinrGainMean 6.8333333333333
scalar Network.myue[1424].myue #sinrGainMean 3.6666666666667
scalar Network.myue[1425].myue #sinrGainMean 1.75
scalar Network.myue[1426].myue #sinrGainMean 7.3333333333333
scalar Network.myue[1427].myue #sinrGainMean 5.5
scalar Network.myue[1428].myue #sinrGainMean 0
scalar Network.myue[1429].myue #sinrGainMean 3.2
scalar Network.myue[1430].myue #sinrGainMean 3.6666666666667
scalar Network.myue[1431].myue #sinrGainMean 1.6666666666667
scalar Network.myue[1432].myue #sinrGainMean 0
scalar Network.myue[1433].myue #sinrGainMean 3.3333333333333
scalar Network.myue[1434].myue #sinrGainMean 3.3333333333333
scalar Network.myue[1435].myue #sinrGainMean 5.75
scalar Network.myue[1436].myue #sinrGainMean 0
scalar Network.myue[1437].myue #sinrGainMean 6
scalar Network.myue[1438].myue #sinrGainMean 0.66666666666667
scalar Network.myue[1439].myue #sinrGainMean 1.875
scalar Network.myue[1440].myue #sinrGainMean 5.3333333333333
scalar Network.myue[1441].myue #sinrGainMean 1.5
scalar Network.myue[1442].myue #sinrGainMean 2.2857142857143
scalar Network.myue[1443].myue #sinrGainMean 2.1428571428571
scalar Network.myue[1444].myue #sinrGainMean 2.6
scalar Network.myue[1445].myue #sinrGainMean 7.8333333333333
scalar Network.myue[1446].myue #sinrGainMean 2
scalar Network.myue[1447].myue #sinrGainMean 0
scalar Network.myue[1448].myue #sinrGainMean 6.5
scalar Network.myue[1449].myue #sinrGainMean 0
scalar Network.myue[1450].myue #sinrGainMean 0
scalar Network.myue[1451].myue #sinrGainMean 3
scalar Network.myue[1452].myue #sinrGainMean 4.8333333333333
scalar Network.myue[1453].myue #sinrGainMean 2.2857142857143
scalar Network.myue[1454].myue #sinrGainMean 5
scalar Network.myue[1455].myue #sinrGainMean 3.625
scalar Network.myue[1456].myue #sinrGainMean 6.4
scalar Network.myue[1457].myue #sinrGainMean 5
scalar Network.myue[1458].myue #sinrGainMean 6.5
scalar Network.myue[1459].myue #sinrGainMean 0
scalar Network.myue[1460].myue #sinrGainMean 3.6
scalar Network.myue[1461].myue #sinrGainMean 2.3333333333333
scalar Network.myue[1462].myue #sinrGainMean 3.875
scalar Network.myue[1463].myue #sinrGainMean 0
scalar Network.myue[1464].myue #sinrGainMean 0
scalar Network.myue[1465].myue #sinrGainMean 6.75
scalar Network.myue[1466].myue #sinrGainMean 0.83333333333333
scalar Network.myue[1467].myue #sinrGainMean 1.4
scalar Network.myue[1468].myue #sinrGainMean 0
scalar Network.myue[1469].myue #sinrGainMean 2.125
scalar Network.myue[1470].myue #sinrGainMean 5.1428571428571
scalar Network.myue[1471].myue #sinrGainMean 4.75
scalar Network.myue[1472].myue #sinrGainMean 0
scalar Network.myue[1473].myue #sinrGainMean 4.5
scalar Network.myue[1474].myue #sinrGainMean 2.6666666666667
scalar Network.myue[1475].myue #sinrGainMean 5
scalar Network.myue[1476].myue #sinrGainMean 4.1666666666667
scalar Network.myue[1477].myue #sinrGainMean 1.3333333333333
scalar Network.myue[1478].myue #sinrGainMean 3.75
scalar Network.myue[1479].myue #sinrGainMean 2.2857142857143
scalar Network.myue[1480].myue #sinrGainMean 4.3333333333333
scalar Network.myue[1481].myue #sinrGainMean 2.8
scalar Network.myue[1482].myue #sinrGainMean 1.7777777777778
scalar Network.myue[1483].myue #sinrGainMean 1
scalar Network.myue[1484].myue #sinrGainMean 1.4285714285714
scalar Network.myue[1485].myue #sinrGainMean 2.2
scalar Network.myue[1486].myue #sinrGainMean 1.2
scalar Network.myue[1487].myue #sinrGainMean 2.4
scalar Network.myue[1488].myue #sinrGainMean 6
scalar Network.myue[1489].myue #sinrGainMean 0.71428571428571
scalar Network.myue[1490].myue #sinrGainMean 3.8
scalar Network.myue[1491].myue #sinrGainMean 2
scalar Network.myue[1492].myue #sinrGainMean 6.5
scalar Network.myue[1493].myue #sinrGainMean 0
scalar Network.myue[1494].myue #sinrGainMean 2
scalar Network.myue[1495].myue #sinrGainMean 0
scalar Network.myue[1496].myue #sinrGainMean 2.25
scalar Network.myue[1497].myue #sinrGainMean 0.75
scalar Network.myue[1498].myue #sinrGainMean 2.75
scalar Network.myue[1499].myue #sinrGainMean 2.6363636363636
scalar Network.myue[1500].myue #sinrGainMean 3.1666666666667
scalar Network.myue[1501].myue #sinrGainMean 2.1666666666667
scalar Network.myue[1502].myue #sinrGainMean 4.7142857142857
scalar Network.myue[1503].myue #sinrGainMean 0
scalar Network.myue[1504].myue #sinrGainMean 2.2222222222222
scalar Network.myue[1505].myue #sinrGainMean 4.125
scalar Network.myue[1506].myue #sinrGainMean 1
scalar Network.myue[1507].myue #sinrGainMean 2.25
scalar Network.myue[1508].myue #sinrGainMean 3.4
scalar Network.myue[1509].myue #sinrGainMean 5.25
scalar Network.myue[1510].myue #sinrGainMean 3.5
scalar Network.myue[1511].myue #sinrGainMean 1
scalar Network.myue[1512].myue #sinrGainMean 3.75
scalar Network.myue[1513].myue #sinrGainMean 1.1666666666667
scalar Network.myue[1514].myue #sinrGainMean 3.75
scalar Network.myue[1515].myue #sinrGainMean 1.5454545454545
scalar Network.myue[1516].myue #sinrGainMean 2
scalar Network.myue[1517].myue #sinrGainMean 3.8
scalar Network.myue[1518].myue #sinrGainMean 6.2
scalar Network.myue[1519].myue #sinrGainMean 2.5
scalar Network.myue[1520].myue #sinrGainMean 4.5
scalar Network.myue[1521].myue #sinrGainMean 1.3333333333333
scalar Network.myue[1522].myue #sinrGainMean 1.7142857142857
scalar Network.myue[1523].myue #sinrGainMean 3
scalar Network.myue[1524].myue #sinrGainMean 0.8
scalar Network.myue[1525].myue #sinrGainMean 7.5
scalar Network.myue[1526].myue #sinrGainMean 2.7142857142857
scalar Network.myue[1527].myue #sinrGainMean 1.3333333333333
scalar Network.myue[1528].myue #sinrGainMean 2.4285714285714
scalar Network.myue[1529].myue #sinrGainMean 2.4285714285714
scalar Network.myue[1530].myue #sinrGainMean 7.25
scalar Network.myue[1531].myue #sinrGainMean 7.8
scalar Network.myue[1532].myue #sinrGainMean 2.875
[...]
scalar Network.myue[2622].myue #sinrGainMean 5.6666666666667
scalar Network.myue[2623].myue #sinrGainMean 4.25
scalar Network.myue[2624].myue #sinrGainMean 0
scalar Network.myue[2625].myue #sinrGainMean 1.6
scalar Network.myue[2626].myue #sinrGainMean 3.1818181818182
scalar Network.myue[2627].myue #sinrGainMean 2
scalar Network.myue[2628].myue #sinrGainMean 1.6666666666667
scalar Network.myue[2629].myue #sinrGainMean 2.8
scalar Network.myue[2630].myue #sinrGainMean 2.1428571428571
scalar Network.myue[2631].myue #sinrGainMean 6.75
scalar Network.myue[2632].myue #sinrGainMean 1.8333333333333
scalar Network.myue[2633].myue #sinrGainMean 2.625
scalar Network.myue[2634].myue #sinrGainMean 2.0909090909091
scalar Network.myue[2635].myue #sinrGainMean 7.1428571428571
scalar Network.myue[2636].myue #sinrGainMean 3.8333333333333
scalar Network.myue[2637].myue #sinrGainMean 2
scalar Network.myue[2638].myue #sinrGainMean 3.1666666666667
scalar Network.myue[2639].myue #sinrGainMean 4
scalar Network.myue[2640].myue #sinrGainMean 7.125
scalar Network.myue[2641].myue #sinrGainMean 2.2857142857143
scalar Network.myue[2642].myue #sinrGainMean 3.25
scalar Network.myue[2643].myue #sinrGainMean 2.4
scalar Network.myue[2644].myue #sinrGainMean 6.2857142857143
scalar Network.myue[2645].myue #sinrGainMean 0
scalar Network.myue[2646].myue #sinrGainMean 0
scalar Network.myue[2647].myue #sinrGainMean 1
scalar Network.myue[2648].myue #sinrGainMean 1.3333333333333
scalar Network.myue[2649].myue #sinrGainMean 2.1428571428571
scalar Network.myue[2650].myue #sinrGainMean 1.8571428571429
scalar Network.myue[2651].myue #sinrGainMean 6
scalar Network.myue[2652].myue #sinrGainMean 3.3333333333333
scalar Network.myue[2653].myue #sinrGainMean 4.3333333333333
scalar Network.myue[2654].myue #sinrGainMean 2.1428571428571
scalar Network.myue[2655].myue #sinrGainMean 6.4285714285714
scalar Network.myue[2656].myue #sinrGainMean 0
scalar Network.myue[2657].myue #sinrGainMean 3.25
scalar Network.myue[2658].myue #sinrGainMean 0
scalar Network.myue[2659].myue #sinrGainMean 4.375
scalar Network.myue[2660].myue #sinrGainMean 2.7142857142857
scalar Network.myue[2661].myue #sinrGainMean 3.5
scalar Network.myue[2662].myue #sinrGainMean 2.3333333333333
scalar Network.myue[2663].myue #sinrGainMean 0.5
scalar Network.myue[2664].myue #sinrGainMean 3.5714285714286
scalar Network.myue[2665].myue #sinrGainMean 5.375
scalar Network.myue[2666].myue #sinrGainMean 0
scalar Network.myue[2667].myue #sinrGainMean 2
scalar Network.myue[2668].myue #sinrGainMean 1.1428571428571
scalar Network.myue[2669].myue #sinrGainMean 2.4285714285714
scalar Network.myue[2670].myue #sinrGainMean 0
scalar Network.myue[2671].myue #sinrGainMean 1.5555555555556
scalar Network.myue[2672].myue #sinrGainMean 1.8571428571429
scalar Network.myue[2673].myue #sinrGainMean 0
scalar Network.myue[2674].myue #sinrGainMean 4
scalar Network.myue[2675].myue #sinrGainMean 0.66666666666667
scalar Network.myue[2676].myue #sinrGainMean 3.1666666666667
scalar Network.myue[2677].myue #sinrGainMean 3.25
scalar Network.myue[2678].myue #sinrGainMean 2.25
scalar Network.myue[2679].myue #sinrGainMean 4.1428571428571
scalar Network.myue[2680].myue #sinrGainMean 2.3333333333333
scalar Network.myue[2681].myue #sinrGainMean 7
scalar Network.myue[2682].myue #sinrGainMean 1.8333333333333
scalar Network.myue[2683].myue #sinrGainMean 0
scalar Network.myue[2684].myue #sinrGainMean 1.5714285714286
scalar Network.myue[2685].myue #sinrGainMean 4.4
scalar Network.myue[2686].myue #sinrGainMean 5.1428571428571
scalar Network.myue[2687].myue #sinrGainMean 5
scalar Network.myue[2688].myue #sinrGainMean 0.75
scalar Network.myue[2689].myue #sinrGainMean 2.3333333333333
scalar Network.myue[2690].myue #sinrGainMean 3.5
scalar Network.myue[2691].myue #sinrGainMean 0.5
scalar Network.myue[2692].myue #sinrGainMean 8.5
scalar Network.myue[2693].myue #sinrGainMean 0
scalar Network.myue[2694].myue #sinrGainMean 7.3636363636364
scalar Network.myue[2695].myue #sinrGainMean 5.6
scalar Network.myue[2696].myue #sinrGainMean 4.4
scalar Network.myue[2697].myue #sinrGainMean 4.7142857142857
scalar Network.myue[2698].myue #sinrGainMean 3.2
scalar Network.myue[2699].myue #sinrGainMean 5.3333333333333
scalar Network.myue[2700].myue #sinrGainMean 4.6
scalar Network.myue[2701].myue #sinrGainMean 6.2857142857143
scalar Network.myue[2702].myue #sinrGainMean 1.8
scalar Network.myue[2703].myue #sinrGainMean 4.5
scalar Network.myue[2704].myue #sinrGainMean 2.5555555555556
scalar Network.myue[2705].myue #sinrGainMean 4.3333333333333
scalar Network.myue[2706].myue #sinrGainMean 0
scalar Network.myue[2707].myue #sinrGainMean 1.2857142857143
scalar Network.myue[2708].myue #sinrGainMean 0
scalar Network.myue[2709].myue #sinrGainMean 2
scalar Network.myue[2710].myue #sinrGainMean 0
scalar Network.myue[2711].myue #sinrGainMean 0
scalar Network.myue[2712].myue #sinrGainMean 2.375
scalar Network.myue[2713].myue #sinrGainMean 0.4
scalar Network.myue[2714].myue #sinrGainMean 3.6666666666667
scalar Network.myue[2715].myue #sinrGainMean 4.2
scalar Network.myue[2716].myue #sinrGainMean 2.2857142857143
scalar Network.myue[2717].myue #sinrGainMean 5.2222222222222
scalar Network.myue[2718].myue #sinrGainMean 5.2
scalar Network.myue[2719].myue #sinrGainMean 0.33333333333333
scalar Network.myue[2720].myue #sinrGainMean 0.8
scalar Network.myue[2721].myue #sinrGainMean 1.4
scalar Network.myue[2722].myue #sinrGainMean 0
scalar Network.myue[2723].myue #sinrGainMean 1.7777777777778
scalar Network.myue[2724].myue #sinrGainMean 4.4
scalar Network.myue[2725].myue #sinrGainMean 2.75
scalar Network.myue[2726].myue #sinrGainMean 2.3333333333333
scalar Network.myue[2727].myue #sinrGainMean 0
scalar Network.myue[2728].myue #sinrGainMean 4
scalar Network.myue[2729].myue #sinrGainMean 6.5555555555556
scalar Network.myue[2730].myue #sinrGainMean 4
scalar Network.myue[2731].myue #sinrGainMean 3.75
scalar Network.myue[2732].myue #sinrGainMean 3.25
scalar Network.myue[2733].myue #sinrGainMean 4
scalar Network.myue[2734].myue #sinrGainMean 2.25
scalar Network.myue[2735].myue #sinrGainMean 5.1666666666667
scalar Network.myue[2736].myue #sinrGainMean 0.75
scalar Network.myue[2737].myue #sinrGainMean 4
scalar Network.myue[2738].myue #sinrGainMean 2.6666666666667
scalar Network.myue[2739].myue #sinrGainMean 1.6
scalar Network.myue[2740].myue #sinrGainMean 4.8333333333333
scalar Network.myue[2741].myue #sinrGainMean 3
scalar Network.myue[2742].myue #sinrGainMean 0
scalar Network.myue[2743].myue #sinrGainMean 1.2
scalar Network.myue[2744].myue #sinrGainMean 3.5
scalar Network.myue[2745].myue #sinrGainMean 2.625
scalar Network.myue[2746].myue #sinrGainMean 0
scalar Network.myue[2747].myue #sinrGainMean 3.6666666666667
scalar Network.myue[2748].myue #sinrGainMean 8
scalar Network.myue[2749].myue #sinrGainMean 1.6666666666667
scalar Network.myue[2750].myue #sinrGainMean 4.25
scalar Network.myue[2751].myue #sinrGainMean 0
scalar Network.myue[2752].myue #sinrGainMean 0
scalar Network.myue[2753].myue #sinrGainMean 0.6
scalar Network.myue[2754].myue #sinrGainMean 2.3333333333333
scalar Network.myue[2755].myue #sinrGainMean 1
scalar Network.myue[2756].myue #sinrGainMean 0
scalar Network.myue[2757].myue #sinrGainMean 3.5
scalar Network.myue[2758].myue #sinrGainMean 1.5714285714286
scalar Network.myue[2759].myue #sinrGainMean 2.1666666666667
scalar Network.myue[2760].myue #sinrGainMean 1.1666666666667
scalar Network.myue[2761].myue #sinrGainMean 1.8333333333333
scalar Network.myue[2762].myue #sinrGainMean 0
scalar Network.myue[2763].myue #sinrGainMean 1.5
scalar Network.myue[2764].myue #sinrGainMean 5.8333333333333
scalar Network.myue[2765].myue #sinrGainMean 0.5
scalar Network.myue[2766].myue #sinrGainMean 2.75
scalar Network.myue[2767].myue #sinrGainMean 3.5
scalar Network.myue[2768].myue #sinrGainMean 4.3333333333333
scalar Network.myue[2769].myue #sinrGainMean 1.6666666666667
scalar Network.myue[2770].myue #sinrGainMean 0.75
scalar Network.myue[2771].myue #sinrGainMean 4.7142857142857
scalar Network.myue[2772].myue #sinrGainMean 0
scalar Network.myue[2773].myue #sinrGainMean 2.6666666666667
scalar Network.myue[2774].myue #sinrGainMean 3.5
scalar Network.myue[2775].myue #sinrGainMean 1.75
scalar Network.myue[2776].myue #sinrGainMean 2.2727272727273
scalar Network.myue[2777].myue #sinrGainMean 0
scalar Network.myue[2778].myue #sinrGainMean 1.7142857142857
scalar Network.myue[2779].myue #sinrGainMean 2.2
scalar Network.myue[2780].myue #sinrGainMean 5.25
scalar Network.myue[2781].myue #sinrGainMean 4.75
scalar Network.myue[2782].myue #sinrGainMean 5.8333333333333
scalar Network.myue[2783].myue #sinrGainMean 0
scalar Network.myue[2784].myue #sinrGainMean 3.6666666666667
scalar Network.myue[2785].myue #sinrGainMean 3
scalar Network.myue[2786].myue #sinrGainMean 2
scalar Network.myue[2787].myue #sinrGainMean 3.8333333333333
scalar Network.myue[2788].myue #sinrGainMean 1.6666666666667
scalar Network.myue[2789].myue #sinrGainMean 1.75
scalar Network.myue[2790].myue #sinrGainMean 3.6666666666667
scalar Network.myue[2791].myue #sinrGainMean 2.4
scalar Network.myue[2792].myue #sinrGainMean 2.75
scalar Network.myue[2793].myue #sinrGainMean 1.2
scalar Network.myue[2794].myue #sinrGainMean 2
scalar Network.myue[2795].myue #sinrGainMean 4.1666666666667
scalar Network.myue[2796].myue #sinrGainMean 3.5
scalar Network.myue[2797].myue #sinrGainMean 0
scalar Network.myue[2798].myue #sinrGainMean 2.3333333333333
scalar Network.myue[2799].myue #sinrGainMean 3.5
scalar Network.myue[2800].myue #sinrGainMean 3.3333333333333
scalar Network.myue[2801].myue #sinrGainMean 1.5
scalar Network.myue[2802].myue #sinrGainMean 6.3333333333333
scalar Network.myue[2803].myue #sinrGainMean 8.5
scalar Network.myue[2804].myue #sinrGainMean 1.3333333333333
scalar Network.myue[2805].myue #sinrGainMean 1.5714285714286
scalar Network.myue[2806].myue #sinrGainMean 5.3333333333333
scalar Network.myue[2807].myue #sinrGainMean 2.3333333333333
scalar Network.myue[2808].myue #sinrGainMean 2.3333333333333
scalar Network.myue[2809].myue #sinrGainMean 4.2
scalar Network.myue[2810].myue #sinrGainMean 0.33333333333333
scalar Network.myue[2811].myue #sinrGainMean 0
scalar Network.myue[2812].myue #sinrGainMean 7.6
scalar Network.myue[2813].myue #sinrGainMean 3.2
scalar Network.myue[2814].myue #sinrGainMean 3.8333333333333
scalar Network.myue[2815].myue #sinrGainMean 2.6
scalar Network.myue[2816].myue #sinrGainMean 1.125
scalar Network.myue[2817].myue #sinrGainMean 0
scalar Network.myue[2818].myue #sinrGainMean 0
scalar Network.myue[2819].myue #sinrGainMean 0
scalar Network.myue[2820].myue #sinrGainMean 3
scalar Network.myue[2821].myue #sinrGainMean 1.8181818181818
scalar Network.myue[2822].myue #sinrGainMean 4.75
scalar Network.myue[2823].myue #sinrGainMean 2.8
scalar Network.myue[2824].myue #sinrGainMean 5.4545454545455
scalar Network.myue[2825].myue #sinrGainMean 1
scalar Network.myue[2826].myue #sinrGainMean 4.3333333333333
scalar Network.myue[2827].myue #sinrGainMean 0
scalar Network.myue[2828].myue #sinrGainMean 3
scalar Network.myue[2829].myue #sinrGainMean 2.8333333333333
scalar Network.myue[2830].myue #sinrGainMean 4.5
scalar Network.myue[2831].myue #sinrGainMean 1.1111111111111
scalar Network.myue[2832].myue #sinrGainMean 1.5
scalar Network.myue[2833].myue #sinrGainMean 7.25
scalar Network.myue[2834].myue #sinrGainMean 1.4
scalar Network.myue[2835].myue #sinrGainMean 2.2857142857143
scalar Network.myue[2836].myue #sinrGainMean 0
scalar Network.myue[2837].myue #sinrGainMean 1.375
scalar Network.myue[2838].myue #sinrGainMean 1.6
scalar Network.myue[2839].myue #sinrGainMean 0.8
scalar Network.myue[2840].myue #sinrGainMean 2.3333333333333
scalar Network.myue[2841].myue #sinrGainMean 1.7142857142857
scalar Network.myue[2842].myue #sinrGainMean 1.4
scalar Network.myue[2843].myue #sinrGainMean 6.7142857142857
scalar Network.myue[2844].myue #sinrGainMean 2.4285714285714
scalar Network.myue[2845].myue #sinrGainMean 1
scalar Network.myue[2846].myue #sinrGainMean 10.666666666667
scalar Network.myue[2847].myue #sinrGainMean 3.6666666666667
scalar Network.myue[2848].myue #sinrGainMean 5.5
scalar Network.myue[2849].myue #sinrGainMean 0.5
scalar Network.myue[2850].myue #sinrGainMean 2.25
scalar Network.myue[2851].myue #sinrGainMean 0
scalar Network.myue[2852].myue #sinrGainMean 2.3333333333333
scalar Network.myue[2853].myue #sinrGainMean 4.5
scalar Network.myue[2854].myue #sinrGainMean 1.3333333333333
scalar Network.myue[2855].myue #sinrGainMean 4.25
scalar Network.myue[2856].myue #sinrGainMean 3.25
scalar Network.myue[2857].myue #sinrGainMean 2.4
scalar Network.myue[2858].myue #sinrGainMean 0
scalar Network.myue[2859].myue #sinrGainMean 3.6
scalar Network.myue[2860].myue #sinrGainMean 3
scalar Network.myue[2861].myue #sinrGainMean 8
scalar Network.myue[2862].myue #sinrGainMean 5.5
scalar Network.myue[2863].myue #sinrGainMean 6.25
scalar Network.myue[2864].myue #sinrGainMean 1
scalar Network.myue[2865].myue #sinrGainMean 2
scalar Network.myue[2866].myue #sinrGainMean 6.6666666666667
scalar Network.myue[2867].myue #sinrGainMean 1.75
scalar Network.myue[2868].myue #sinrGainMean 4.8571428571429
scalar Network.myue[2869].myue #sinrGainMean 0
scalar Network.myue[2870].myue #sinrGainMean 2.3333333333333
scalar Network.myue[2871].myue #sinrGainMean 1.3333333333333
scalar Network.myue[2872].myue #sinrGainMean 2
scalar Network.myue[2873].myue #sinrGainMean 1
scalar Network.myue[2874].myue #sinrGainMean 2
scalar Network.myue[2875].myue #sinrGainMean 1.7142857142857
scalar Network.myue[2876].myue #sinrGainMean 0
scalar Network.myue[2877].myue #sinrGainMean 6.6
scalar Network.myue[2878].myue #sinrGainMean 0
scalar Network.myue[2879].myue #sinrGainMean 0
scalar Network.myue[2880].myue #sinrGainMean 0
scalar Network.myue[2881].myue #sinrGainMean 2.4
scalar Network.myue[2882].myue #sinrGainMean 5.6
scalar Network.myue[2883].myue #sinrGainMean 0
scalar Network.myue[2884].myue #sinrGainMean 0.25
scalar Network.myue[2885].myue #sinrGainMean 6.8333333333333
scalar Network.myue[2886].myue #sinrGainMean 2.4444444444444
scalar Network.myue[2887].myue #sinrGainMean 0
scalar Network.myue[2888].myue #sinrGainMean 3.5
scalar Network.myue[2889].myue #sinrGainMean 1.4
scalar Network.myue[2890].myue #sinrGainMean 5
scalar Network.myue[2891].myue #sinrGainMean 1.8333333333333
scalar Network.myue[2892].myue #sinrGainMean 7.6666666666667
scalar Network.myue[2893].myue #sinrGainMean 0
scalar Network.myue[2894].myue #sinrGainMean 0
scalar Network.myue[2895].myue #sinrGainMean 10.833333333333
scalar Network.myue[2896].myue #sinrGainMean 4
scalar Network.myue[2897].myue #sinrGainMean 0
scalar Network.myue[2898].myue #sinrGainMean 2.1428571428571
scalar Network.myue[2899].myue #sinrGainMean 3.3333333333333
scalar Network.myue[2900].myue #sinrGainMean 1.25
scalar Network.myue[2901].myue #sinrGainMean 4.25
scalar Network.myue[2902].myue #sinrGainMean 0
scalar Network.myue[2903].myue #sinrGainMean 3.5
scalar Network.myue[2904].myue #sinrGainMean 4
scalar Network.myue[2905].myue #sinrGainMean 1
scalar Network.myue[2906].myue #sinrGainMean 0
scalar Network.myue[2907].myue #sinrGainMean 3.5555555555556
scalar Network.myue[2908].myue #sinrGainMean 6.2
scalar Network.myue[2909].myue #sinrGainMean 5.8
scalar Network.myue[2910].myue #sinrGainMean 0
scalar Network.myue[2911].myue #sinrGainMean 0
scalar Network.myue[2912].myue #sinrGainMean 2.25
scalar Network.myue[2913].myue #sinrGainMean 2.75
scalar Network.myue[2914].myue #sinrGainMean 0
scalar Network.myue[2915].myue #sinrGainMean 0
scalar Network.myue[2916].myue #sinrGainMean 0
scalar Network.myue[2917].myue #sinrGainMean 0
scalar Network.myue[2918].myue #sinrGainMean 0.25
scalar Network.myue[2919].myue #sinrGainMean 5.6666666666667
scalar Network.myue[2920].myue #sinrGainMean 2.6
scalar Network.myue[2921].myue #sinrGainMean 2.3333333333333
scalar Network.myue[2922].myue #sinrGainMean 0
scalar Network.myue[2923].myue #sinrGainMean 5
scalar Network.myue[2924].myue #sinrGainMean 1.75
scalar Network.myue[2925].myue #sinrGainMean 2.1666666666667
scalar Network.myue[2926].myue #sinrGainMean 2.8333333333333
scalar Network.myue[2927].myue #sinrGainMean 4.8
scalar Network.myue[2928].myue #sinrGainMean 4.25
scalar Network.myue[2929].myue #sinrGainMean 9.1666666666667
scalar Network.myue[2930].myue #sinrGainMean 1.8888888888889
scalar Network.myue[2931].myue #sinrGainMean 4
scalar Network.myue[2932].myue #sinrGainMean 1
scalar Network.myue[2933].myue #sinrGainMean 3.8333333333333
scalar Network.myue[2934].myue #sinrGainMean 2.6666666666667
scalar Network.myue[2935].myue #sinrGainMean 0.75
scalar Network.myue[2936].myue #sinrGainMean 0
scalar Network.myue[2937].myue #sinrGainMean 6.8
scalar Network.myue[2938].myue #sinrGainMean 4
scalar Network.myue[2939].myue #sinrGainMean 0
scalar Network.myue[2940].myue #sinrGainMean 4
scalar Network.myue[2941].myue #sinrGainMean 3.7777777777778
scalar Network.myue[2942].myue #sinrGainMean 0.4
scalar Network.myue[2943].myue #sinrGainMean 6.4285714285714
scalar Network.myue[2944].myue #sinrGainMean 6.3333333333333
scalar Network.myue[2945].myue #sinrGainMean 2.6666666666667
scalar Network.myue[2946].myue #sinrGainMean 5.5714285714286
scalar Network.myue[2947].myue #sinrGainMean 2.5
scalar Network.myue[2948].myue #sinrGainMean 0
scalar Network.myue[2949].myue #sinrGainMean 1.6666666666667
scalar Network.myue[2950].myue #sinrGainMean 0
scalar Network.myue[2951].myue #sinrGainMean 4.2
scalar Network.myue[2952].myue #sinrGainMean 2.6666666666667
scalar Network.myue[2953].myue #sinrGainMean 0
scalar Network.myue[2954].myue #sinrGainMean 2.2
scalar Network.myue[2955].myue #sinrGainMean 1.6666666666667
scalar Network.myue[2956].myue #sinrGainMean 5.2857142857143
scalar Network.myue[2957].myue #sinrGainMean 0
scalar Network.myue[2958].myue #sinrGainMean 0.66666666666667
scalar Network.myue[2959].myue #sinrGainMean 3.6
scalar Network.myue[2960].myue #sinrGainMean 3.3333333333333
scalar Network.myue[2961].myue #sinrGainMean 3.3333333333333
scalar Network.myue[2962].myue #sinrGainMean 4.4444444444444
scalar Network.myue[2963].myue #sinrGainMean 5.2
scalar Network.myue[2964].myue #sinrGainMean 3
scalar Network.myue[2965].myue #sinrGainMean 4.25
scalar Network.myue[2966].myue #sinrGainMean 2
scalar Network.myue[2967].myue #sinrGainMean 2.5714285714286
scalar Network.myue[2968].myue #sinrGainMean 4.6
scalar Network.myue[2969].myue #sinrGainMean 1.6666666666667
scalar Network.myue[2970].myue #sinrGainMean 5
scalar Network.myue[2971].myue #sinrGainMean 1.8888888888889
scalar Network.myue[2972].myue #sinrGainMean 2.75
scalar Network.myue[2973].myue #sinrGainMean 2.1666666666667
scalar Network.myue[2974].myue #sinrGainMean 1
scalar Network.myue[2975].myue #sinrGainMean 3.5
scalar Network.myue[2976].myue #sinrGainMean 0
scalar Network.myue[2977].myue #sinrGainMean 0
scalar Network.myue[2978].myue #sinrGainMean 5.6
scalar Network.myue[2979].myue #sinrGainMean 1.3333333333333
scalar Network.myue[2980].myue #sinrGainMean 1
scalar Network.myue[2981].myue #sinrGainMean 0.2
scalar Network.myue[2982].myue #sinrGainMean 4.6
scalar Network.myue[2983].myue #sinrGainMean 2.2
scalar Network.myue[2984].myue #sinrGainMean 2.8
scalar Network.myue[2985].myue #sinrGainMean 2
scalar Network.myue[2986].myue #sinrGainMean 4.4
scalar Network.myue[2987].myue #sinrGainMean 5.3333333333333
scalar Network.myue[2988].myue #sinrGainMean 0
scalar Network.myue[2989].myue #sinrGainMean 0.6
scalar Network.myue[2990].myue #sinrGainMean 3.2
scalar Network.myue[2991].myue #sinrGainMean 0
scalar Network.myue[2992].myue #sinrGainMean 1.6
scalar Network.myue[2993].myue #sinrGainMean 4.5
scalar Network.myue[2994].myue #sinrGainMean 2
scalar Network.myue[2995].myue #sinrGainMean 1.6666666666667
scalar Network.myue[2996].myue #sinrGainMean 4
scalar Network.myue[2997].myue #sinrGainMean 0
scalar Network.myue[2998].myue #sinrGainMean 0.66666666666667
scalar Network.myue[2999].myue #sinrGainMean 5

